         MACRO -- $#ADD -- ADD A JOE TO THE JOT                         AD002000
&NAME    $#ADD &WORK=,&CHAR=                                         R4 AD004000
         GBLC  &NAME1              LOCATION SYMBOL NAME                 AD006000
&NAME1   SETC  '&NAME'             SET TO PROGRAMMER SUPPLIED           AD008000
         AIF   ('&WORK' EQ '').WORKX IS WORK-JOE ADDRESS MISSING        AD010000
         $DECOD1 &WORK,,L,R0       SET WORK-JOE ADDRESS REGISTER        AD012000
         AIF   ('&CHAR' EQ '').CHARX IS CHAR-JOE ADDRESS MISSING        AD014000
         $DECOD1 &CHAR,,L,R1       SET CHAR-JOE ADDRESS REGISTER        AD016000
&NAME1   L     R15,$JOEADD         GET ADDRESS OF JOE ADD SUBROUTINE R4 AD018000
         BALR  R14,R15             GIVE IT A TRY                        AD020000
         MEXIT                                                          AD022000
.WORKX   ANOP                                                           AD024000
         MNOTE 8,'WORK-JOE ADDRESS MISSING'                             AD026000
         MEXIT                                                          AD028000
.CHARX   ANOP                                                           AD030000
         MNOTE 8,'CHAR-JOE ADDRESS MISSING'                             AD032000
         MEXIT                                                          AD034000
         MEND                                                           AD036000
