         MACRO -- $#BLD -- BUILD WORK AND CHARACTERISTICS JOES       R4 AF002000
&NAME    $#BLD &JOES=,&PDDB=,&JQE=                                   R4 AF004000
         GBLC  &NAME1              LOCATION SYMBOL NAME              R4 AF006000
         $CHEK &JOES,&PDDB         ALL KEYWORDS                      R4 AF008000
         $CHEK &JQE,&JQE             MUST BE SPECIFIED               R4 AF010000
&NAME1   SETC  '&NAME'             SET UP LABEL                      R4 AF012000
         $DECOD1 &JOES,,LA,R1      ADDRESS OF CHAR/WORK JOES         R4 AF014000
         $DECOD1 &PDDB,,LA,R0      ADDRESS OF PDDB                   R4 AF016000
         $DECOD1 &JQE,,L,R15       OFFSET OF JOB QUEUE ELEMENT       R4 AF018000
&NAME1   L     LINK,$JOEBLD        LOAD JOE BUILD ENTRY ADDRESS      R4 AF020000
         BALR  LINK,LINK           LINK TO SERVICE ROUTINE           R4 AF022000
         MEND                                                        R4 AF024000
