         MACRO -- $#CAN -- CANCEL ALL JOES FOR A JOB                    AH002000
&NAME    $#CAN &JQE=                                                    AH004000
         GBLC  &NAME1              LOCATION SYMBOL NAME                 AH006000
&NAME1   SETC  '&NAME'             SET TO PROGRAMMER SUPPLIED           AH008000
         AIF   ('&JQE' EQ '').JQEX IS JQE ADDRESS MISSING               AH010000
         $DECOD1 &JQE,,L,R1        SET JOB QUEUE ELEMENT ADDRESS        AH012000
&NAME1   L     R15,$JOECAN         GET ADDR OF JOE CANCEL SUBROUTINE R4 AH014000
         BALR  R14,R15             GIVE IT A TRY                        AH016000
         MEXIT                                                          AH018000
.JQEX    ANOP                                                           AH020000
         MNOTE 8,'JOB QUEUE ELEMENT ADDRESS MISSING'                    AH022000
         MEND                                                           AH024000
