         MACRO -- $#CKPT -- REQUEST CHECKPOINT FOR ALTERED JOES@OZ40444 AJ002000
&NAME    $#CKPT &JOE=,&TYPE=D,&HEAD=NO                         @OZ40444 AJ004000
         $CHEK  X,&JOE                                         @OZ40444 AJ006000
&NAME    STM   R14,R1,$CSAVREG                                 @OZ40444 AJ008000
         $DECOD1 &JOE,,LA,R1                                   @OZ40444 AJ010000
         AIF   ('&TYPE' NE 'D').A                              @OZ40444 AJ012000
         L     R15,$JOEOFFA        GET ENTRY POINT ADDRESS     @OZ40444 AJ014000
.A       AIF   ('&TYPE' EQ 'D').C                              @OZ40444 AJ016000
         AIF   ('&TYPE' EQ 'A').B                              @OZ40444 AJ018000
         MNOTE 8,'INVALID TYPE SPECIFICATION'                  @OZ40444 AJ020000
         MEXIT                                                 @OZ40444 AJ022000
.B       L     R15,$JOECKPA        GET ENTRY POINT ADDRESS     @OZ40444 AJ024000
.C       AIF   ('&HEAD' NE 'NO').D                             @OZ40444 AJ026000
         BALR  R14,R15             CHECKPOINT ALTERED JOE      @OZ40444 AJ028000
         AGO   .E                                              @OZ40444 AJ030000
.D       BAL   R14,0(,R15)         CKPT ALTERED JOE            @OZ40444 AJ032000
.E       LM    R14,R1,$CSAVREG                                 @OZ40444 AJ034000
.*                                 THIS CARD DELETED BY APAR   @OZ40444 AJ036000
.*                                 THIS CARD DELETED BY APAR   @OZ40444 AJ038000
.*                                 THIS CARD DELETED BY APAR   @OZ40444 AJ040000
.*                                 THIS CARD DELETED BY APAR   @OZ40444 AJ042000
.*                                 THIS CARD DELETED BY APAR   @OZ40444 AJ044000
.*                                 THIS CARD DELETED BY APAR   @OZ40444 AJ046000
.*                                 THIS CARD DELETED BY APAR   @OZ40444 AJ048000
.*                                 THIS CARD DELETED BY APAR   @OZ40444 AJ050000
.*                                 THIS CARD DELETED BY APAR   @OZ40444 AJ052000
.*                                 THIS CARD DELETED BY APAR   @OZ40444 AJ054000
         MEND                                                  @OZ40444 AJ056000
