         MACRO -- $#GET -- GET A JOE FROM THE JOT                       AL002000
&NAME    $#GET &WTRID=,&DCT=,&HAVE=YES                                  AL004000
         GBLC  &NAME1              LOCATION SYMBOL NAME                 AL006000
&NAME1   SETC  '&NAME'             SET TO PROGRAMMER SUPPLIED           AL008000
         AIF   ('&DCT' EQ '').DCTX IS DCT ADDRESS MISSING               AL010000
         $DECOD1 &DCT,,L,R1        SET DCT ADDRESS REGISTER             AL012000
         AIF   ('&HAVE' EQ 'YES').HAVE DOES CALLER WANT WORK            AL014000
&NAME1   ICM   R1,8,=X'80'         SET 'HAVE=NO' BIT                 R4 AL016000
&NAME1   SETC  ''                                                    R4 AL018000
.HAVE    ANOP                                                           AL020000
&NAME1   L     R15,$JOEGET         GET ADDRESS OF JOE GET SUBROUTINE R4 AL022000
         BALR  R14,R15             GIVE IT A TRY                        AL024000
         MEXIT                                                          AL026000
.DCTX    ANOP                                                           AL028000
         MNOTE 8,'PRINT/PUNCH DCT ADDRESS MISSING'                      AL030000
         MEND                                                           AL032000
