         MACRO -- $#PUT -- RETURN A JOE TO THE JOT                      AP002000
&NAME    $#PUT &WORK=,&PRC=                                             AP004000
         GBLC  &NAME1              LOCATION SYMBOL NAME                 AP006000
&NAME1   SETC  '&NAME'             SET TO PROGRAMMER SUPPLIED           AP008000
         AIF   ('&PRC' EQ '').NOPRC WAS PRC ADDRESS GIVEN               AP010000
         $DECOD1 &PRC,,L,R0        SET PRC ADDRESS REGISTER             AP012000
         AGO   .PRC                                                     AP014000
.NOPRC   ANOP                                                           AP016000
&NAME    SR    R0,R0               R0=0 (NO PRC GIVEN)                  AP018000
&NAME1   SETC  ''                  SET LOCATION TO NULL                 AP020000
.PRC     ANOP                                                           AP022000
         AIF   ('&WORK' EQ '').WORKX IS WORK-JOE ADDRESS MISSING        AP024000
         $DECOD1 &WORK,,L,R1       SET WORK-JOE ADDRESS REGISTER        AP026000
&NAME1   L     R15,$JOEPUT         GET ADDRESS OF JOE PUT SUBROUTINE R4 AP028000
         BALR  R14,R15             GIVE IT A TRY                        AP030000
         MEXIT                                                          AP032000
.WORKX   ANOP                                                           AP034000
         MNOTE 8,'WORK-JOE ADDRESS MISSING'                             AP036000
         MEND                                                           AP038000
