         MACRO -- $#REM -- REMOVE A JOE FROM THE JOT                    AR002000
&NAME    $#REM &WORK=                                                R4 AR004000
         GBLC  &NAME1              LOCATION SYMBOL NAME                 AR006000
&NAME1   SETC  '&NAME'             SET TO PROGRAMMER SUPPLIED           AR008000
         AIF   ('&WORK' EQ '').WORKX IS WORK-JOE ADDRESS MISSING        AR010000
         $DECOD1 &WORK,,L,R1       SET WORK-JOE ADDRESS REGISTER        AR012000
&NAME1   L     R15,$JOEREM         GET ADDR OF JOE REMOVE SUBROUTINE R4 AR014000
         BALR  R14,R15             GIVE IT A TRY                        AR016000
         MEXIT                                                          AR018000
.WORKX   ANOP                                                           AR020000
         MNOTE 8,'WORK-JOE ADDRESS MISSING'                             AR022000
         MEND                                                           AR024000
