         MACRO -- $$WTOR -- ISSUE DIRECT WTOR                        R4 AC002000
&NAME    $$WTOR &MSG                                                 R4 AC004000
&NAME    $$WTO  &MSG               USE $$WTO ROUTINE FOR $$WTOR'S    R4 AC006000
         MEND                                                        R4 AC008000
