         MACRO -- $$WTO -- ISSUE DIRECT WTO                          R4 AB002000
&NAME    $$WTO &MSG                                                  R4 AB004000
         LCLC  &N                                                    R4 AB006000
         $CHEK X,&MSG              ENSURE MESSAGE ADDRESS PRESENT    R4 AB008000
         AIF   ('&MSG' EQ '(R1)').B                                  R4 AB010000
         AIF   ('&MSG'(1,1) NE '(').A                                R4 AB012000
&NAME    LR    R1,&MSG(1)          RELOAD MESSAGE ADDRESS            R4 AB014000
         AGO   .C                                                    R4 AB016000
.A       ANOP                                                        R4 AB018000
&NAME    LA    R1,&MSG             POINT TO MESSAGE                  R4 AB020000
         AGO   .C                                                    R4 AB022000
.B       ANOP                                                        R4 AB024000
&N       SETC  '&NAME'                                               R4 AB026000
.C       ANOP                                                        R4 AB028000
&N       L     R15,$$WTO           GET $$WTO/$$WTOR ROUTINE ADDRESS  R4 AB030000
         BALR  LINK,R15             AND LINK TO IT                   R4 AB032000
         MEND                                                        R4 AB034000
