         MACRO -- $ACTIVE -- INDICATE PROCESSOR ACTIVE                  AZ002000
&NAME    $ACTIVE &DUMMY,&R=R1                                           AZ004000
&NAME    IC    &R,$ACTIVE          INDICATE                             AZ006000
         LA    &R,1(,&R)            PROCESSOR                           AZ008000
         STC   &R,$ACTIVE            ACTIVE                             AZ010000
         MEND                                                           AZ012000
