         MACRO -- $ALLOC -- ALLOCATE A HASP DEVICE                      A1002000
&NAME    $ALLOC &LOC,&NONE                                              A1004000
         $CHEK X,&LOC              INSURE DCT ADDRESS WAS PROVIDED      A1006000
&NAME    $DECODE &LOC,OPA=L        SET UP DCT ADDRESS IN R1             A1008000
         L     R15,$DYNADDR        GET ADDRESS OF DYNAMIC ALLOCATE      A1010000
         BALR  LINK,R15            LINK TO CONTROL SERVICE PROGRAM      A1012000
         $NPEXIT &NONE             SET UP NON-PROCESS EXIT              A1014000
         MEND                                                           A1016000
