         MACRO -- $BFRBLD -- BUILD BUFFER PREFIX AREA IN HASP BUFFER R4 BB002000
&NAME    $BFRBLD &ADDR,&TYPE=HASP                                    R4 BB004000
         $CHEK X,&ADDR             BUFFER ADDRESS MUST BE PROVIDED   R4 BB006000
&NAME    $DECODE &ADDR,OPA=L       OBTAIN BUFFER ADDRESS IN R1       R4 BB008000
         L     R15,$BFRBLD         GET BUFFER BUILD ROUTINE ADDRESS  R4 BB010000
         AIF   ('&TYPE' NE 'HASP').A                                 R4 BB012000
         BALR  LINK,R15            ENTER BUFFER BUILD ROUTINE        R4 BB014000
         MEXIT                                                       R4 BB016000
.A       $DECODE ,&TYPE,HB=BUF     OBTAIN BUFFER TYPE IN R0          R4 BB018000
         BAL   LINK,0(,R15)        ENTER BUFFER BUILD ROUTINE        R4 BB020000
         MEND                                                        R4 BB022000
