         MACRO -- $CHEK -- CHECK FOR MISSING MACRO ARGUMENTS            BT002000
&NAME    $CHEK &A,&B                                                    BT004000
         AIF   ('&A' NE '' AND '&B' NE '').END                          BT006000
         MNOTE 4,'INSUFFICIENT MACRO ARGUMENTS ***********************' BT008000
.END     MEND                                                           BT010000
