         MACRO -- $COUNT -- COUNT SELECTED OCCURRENCES                  B3002000
&NAME    $COUNT &DUMMY,&R=R1                                            B3004000
&NAME    TM    $RUNOPTS,$DEBUG     IF DEBUG OPTION NOT SELECTED,     R4 B3006000
         BZ    *+20                 BR AROUND COUNT                  R4 B3008000
         LH    &R,*+14             GENERATE                          R4 B3010000
         LA    &R,1(,&R)            CUMULATIVE                          B3012000
         STH   &R,*+6                OCCURRENCE                         B3014000
         NOP   *-*                    COUNT                             B3016000
         MEND                                                           B3018000
