         MACRO -- $DECODE -- DECODE MACRO ARGUMENTS - FIRST LEVEL       CH002000
&NAME    $DECODE &A,&B,&HA=,&HB=,&OPA=LA,&OPB=LA,&RA=R1,&RB=R0          CH004000
         GBLC  &NAME1                                                   CH006000
&NAME1   SETC  '&NAME'             SET UP LOCATION                      CH008000
         $DECOD1 &A,&HA,&OPA,&RA   SET UP FIRST ARGUMENT                CH010000
         $DECOD1 &B,&HB,&OPB,&RB   SET UP SECOND ARGUMENT               CH012000
         AIF   ('&NAME1' EQ '').END                                     CH014000
&NAME1   NULL                      DEFINE LOCATION IF NOT DEFINED       CH016000
.END     MEND                                                           CH018000
