         MACRO -- $DISTERR -- INDICATE DISASTROUS ERROR CONDITION       CL002000
&NAME    $DISTERR                                                       CL004000
         $CHEK X,&NAME             INSURE SYMBOL REFERENCE WAS PROVIDED CL006000
&NAME    L     R15,$DISTERR        GET DISASTROUS ERROR RTN ADDR     R4 CL008000
         BALR  LINK,R15             AND LINK TO IT                   R4 CL010000
         DC    0AL4(&NAME),CL8'&NAME'        SYMBOL REFERENCE           CL012000
         DC    CL8'&SYSECT'                  CSECT REFERENCE            CL014000
         MEND                                                           CL016000
