         MACRO -- $DLENGTH -- COMPUTE DECIMAL LENGTH                    CN002000
&NAME    $DLENGTH &DUMMY,&HEADER=L                                      CN004000
         LCLC  &L                                                       CN006000
         $CHEK &NAME,&HEADER       INSURE ARGUMENTS WERE PROVIDED       CN008000
&L       SETC  '$&HEADER'                                               CN010000
         TITLE '&SYSECT CONTROL SECTION LENGTH'                         CN012000
         SPACE 10                                                       CN014000
         DS    0D                  FILL OUT CONTROL SECTION             CN016000
&L       EQU   *-&SYSECT                                                CN018000
&L.1     EQU   &L/100000*100000              COMPUTE                    CN020000
&L.2     EQU   (&L-&L.1)/10000*10000           INTERMEDIATE             CN022000
&L.3     EQU   (&L-&L.1-&L.2)/1000*1000          LENGTH                 CN024000
&L.4     EQU   (&L-&L.1-&L.2-&L.3)/100*100         VALUES               CN026000
&L.5     EQU   (&L-&L.1-&L.2-&L.3-&L.4)/10*10                           CN028000
&L.6     EQU   &L-&L.1-&L.2-&L.3-&L.4-&L.5                              CN030000
         SPACE 5                                                        CN032000
*                                                                       CN034000
*                                  DECIMAL LENGTH                       CN036000
*                                                                       CN038000
         SPACE 3                                                        CN040000
&NAME    EQU   &L.1/100000*1048576+&L.2/10000*65536+&L.3/1000*4096+&L.4CCN042000
               /100*256+&L.5/10*16+&L.6                                 CN044000
         SPACE 5                                                        CN046000
         MEND                                                           CN048000
