         MACRO -- $DORMANT -- INDICATE PROCESSOR INACTIVE               CR002000
&NAME    $DORMANT &DUMMY,&R=R1                                          CR004000
&NAME    IC    &R,$ACTIVE          INDICATE                             CR006000
         BCTR  &R,0                 PROCESSOR                           CR008000
         STC   &R,$ACTIVE            INACTIVE                           CR010000
         MEND                                                           CR012000
