         MACRO -- $ERROR -- INDICATE CATASTROPHIC ERROR CONDITION       CZ002000
&NAME    $ERROR                                                         CZ004000
         LCLC  &CD                                                   R4 CZ006000
         $CHEK X,&NAME             INSURE ERROR CODE WAS PROVIDED       CZ008000
&CD      SETC  '&NAME'                                               R4 CZ010000
&NAME    L     BASE1,$ERROR        GET CATASTROPHIC ERROR RTN ADDR   R4 CZ012000
         BALR  R0,BASE1             AND GO TO IT                     R4 CZ014000
         DC    0AL4(&CD),CL4'&CD'  HASP SYSTEM ERROR CODE            R4 CZ016000
         MEND                                                           CZ018000
