         MACRO -- $EXCP -- INITIATE INPUT/OUTPUT OPERATION           R4 C1002000
&NAME    $EXCP &DCT,&TYPE=,&WAIT=NO                                  R4 C1004000
         $CHEK X,&DCT              ENSURE DCT ADDRESS PRESENT        R4 C1006000
&NAME    $DECODE &DCT,OPA=L        SET UP DCT ADDRESS IN R1          R4 C1008000
         L     R15,$EXCP           GET EXCP ROUTINE ADDRESS          R4 C1010000
         AIF   ('&TYPE' EQ 'VR').A                                   R4 C1012000
         BALR  LINK,R15            INITIATE I/O VIA EXCP             R4 C1014000
         AGO   .B                                                    R4 C1016000
.A       BAL   LINK,0(,R15)        INITIATE I/O VIA EXCPVR           R4 C1018000
.B       AIF   ('&WAIT' EQ 'NO').END                                 R4 C1020000
         DC    AL2(0)              WAIT FOR I/O TO COMPLETE          R4 C1022000
.END     MEND                                                        R4 C1024000
