         MACRO -- $EXTP -- INITIATE REMOTE TERMINAL I/O              R4 C3002000
&NAME    $EXTP &TYPE,&DCT,&LOC                                       R4 C3004000
         LCLC  &TP                                                   R4 C3006000
         $CHEK &TYPE,&DCT          INSURE ARGUMENTS WERE PROVIDED    R4 C3008000
         AIF   ('&TYPE' NE 'GET' AND '&TYPE' NE 'PUT').A             R4 C3010000
         $CHEK X,&LOC              INSURE DATA ADDRESS WAS PROVIDED  R4 C3012000
.A       ANOP                                                        R4 C3014000
&NAME    $DECODE &DCT,&LOC,OPA=L   SET UP ARGUMENT ADDRESSES         R4 C3016000
&TP      SETC  '&TYPE'(1,3)        SET UP TYPE CODE                  R4 C3018000
         L     R15,$EXTP           GET ADDR OF RTAM SERVICE ROUTINES R4 C3020000
         BALR  LINK,R15            LINK TO RTAM SERVICE ROUTINE      R4 C3022000
         DC    Y($EXTP&TP*($AMTYPES*4))  OFFSET TO $EXTP ADCON LIST  R4 C3024000
         MEND                                                        R4 C3026000
