         MACRO -- $FREEBUF -- FREE A BUFFER                             C9002000
&NAME    $FREEBUF &LOC,&TYPE                                         R4 C9004000
         $CHEK X,&LOC              INSURE BUFFER ADDRESS WAS PROVIDED   C9006000
&NAME    $DECODE &LOC,OPA=L        SET UP BUFFER ADDRESS IN R1          C9008000
         L     R15,$FREEBUF        GET BUFFER 'FREE' ROUTINE ADDRESS R4 C9010000
         AIF   ('&TYPE' EQ 'MULTIPLE').A                             R4 C9012000
         BALR  LINK,R15            BR TO FREE SINGLE BUFFER          R4 C9014000
         MEXIT                                                       R4 C9016000
.A       BAL   LINK,0(,R15)        BR TO FREE MULTIPLE BUFFERS       R4 C9018000
         MEND                                                        R4 C9020000
