         MACRO -- $FREUNIT -- FREE A UNIT                               DD002000
&NAME    $FREUNIT &LOC                                                  DD004000
         $CHEK X,&LOC              INSURE DCT ADDRESS WAS PROVIDED      DD006000
&NAME    $DECODE &LOC,OPA=L        SET UP DCT ADDRESS IN R1             DD008000
         BAL   LINK,$FREUNIT       ENTER CONTROL SERVICE ROUTINE     R4 DD010000
         MEND                                                           DD012000
