         MACRO -- $FRECEL -- FREE A CSA STORAGE CELL                    C5002000
&NAME    $FRECEL &CELL=(R1)                                         R41 C5004000
&NAME    $DECODE &CELL                                                  C5006000
         L     R15,$FRECEL         POINT TO ROUTINE                     C5008000
         BALR  LINK,R15            ENTER FREE CELL ROUTINE              C5010000
         MEND                                                           C5012000
