         MACRO -- $FRELOK -- FREE CMS LOCK                              DB002000
&NAME    $FRELOK                                                        DB004000
&NAME    L     R15,$FRELOK         POINT TO ROUTINE                     DB006000
         BALR  LINK,R15            FREE LOCK                            DB008000
         MEND                                                           DB010000
