         MACRO -- $GETBUF -- GET ONE OR MORE BUFFERS                 R4 DF002000
&NAME    $GETBUF &NONE,&NUM=1,&TYPE=HASP,&FIX=NO,&WAIT=NO            R4 DF004000
         LCLC  &BFTYPE                                               R4 DF006000
&BFTYPE  SETC  'BUF&TYPE'                                            R4 DF008000
         AIF   ('&BFTYPE' NE 'BUFTP').AA                             R4 DF010000
         MNOTE 4,'TYPE=TP INVALID -- TYPE=BSC ASSUMED'               R4 DF012000
&BFTYPE  SETC  'BUFBSC'                                              R4 DF014000
.AA      ANOP                                                        R4 DF016000
&NAME    L     R15,$GETBUF         GET ADDRESS OF $GETBUF ROUTINE    R4 DF018000
         AIF   ('&NUM' EQ '1').A                                     R4 DF020000
         $DECODE &NUM,OPA=L,RA=R0                                    R4 DF022000
&BFTYPE  SETC  '&BFTYPE'.'+BUFMULT'                                  R4 DF024000
.A       AIF   ('&FIX' EQ 'NO').B                                    R4 DF026000
&BFTYPE  SETC  '&BFTYPE'.'+BUFFIX'                                   R4 DF028000
.B       LA    R1,&BFTYPE          SET REQUEST OPTIONS               R4 DF030000
         AIF   ('&WAIT' EQ 'NO').D                                   R4 DF032000
         AIF   ('&NONE' EQ '').C                                     R4 DF034000
         MNOTE 4,'NON-PROCESS EXIT IGNORED'                          R4 DF036000
.C       BALR  LINK,R15            ENTER $GETBUF ROUTINE             R4 DF038000
         MEXIT                                                       R4 DF040000
.D       BAL   LINK,0(,R15)        ENTER $GETBUF ROUTINE             R4 DF042000
         $NPEXIT &NONE             SET UP NON-PROCESS EXIT           R4 DF044000
         MEND                                                        R4 DF046000
