         MACRO -- $GETSMFB -- GET SMF BUFFER                            DN002000
&NAME    $GETSMFB &WAIT=NO                                              DN004000
         AIF   ('&WAIT' EQ 'NO').A                                      DN006000
&NAME    LA    R1,1                WAIT FOR SMF IF NECESSARY            DN008000
         AGO   .B                                                       DN010000
.A       ANOP                                                           DN012000
&NAME    SR    R1,R1               DO NOT WAIT IF NO BUFFERS FREE       DN014000
.B       ANOP                                                           DN016000
         BAL   LINK,$GETSMFB       LINK TO CONTROL SERVICE PROGRAM      DN018000
         MEND                                                           DN020000
