         MACRO -- $GETUNIT -- GET A UNIT                                DP002000
&NAME    $GETUNIT &DCT,&NONE                                         R4 DP004000
         $CHEK X,&DCT              INSURE DCT ADDRESS WAS PROVIDED   R4 DP006000
&NAME    $DECODE &DCT,OPA=L        SET UP DCT ADDRESS IN R1          R4 DP008000
         BAL   LINK,$GETUNIT       LINK TO CONTROL SERVICE PROGRAM      DP010000
         $NPEXIT &NONE             SET UP NON-PROCESS EXIT              DP012000
         MEND                                                           DP014000
