         MACRO -- $GETCEL -- GET A CSA STORAGE CELL SP 231              DH002000
&NAME    $GETCEL &SJB=(R0),&TCB=(R1),&SIZE=(R4),&NONE=                  DH004000
&NAME    $DECODE &TCB,&SJB                                              DH006000
         $DECODE &SIZE,RA=R4                                            DH008000
         L     R15,$GETCEL         POINT TO ROUTINE                     DH010000
         BALR  LINK,R15            ENTER GET CELL ROUTINE               DH012000
         LTR   R1,R1               TEST FOR GOTTEN                      DH014000
         BZ    &NONE               BR IF NO STORAGE                     DH016000
         MEND                                                           DH018000
