         MACRO -- $HCTENT -- GENERATE HASP COMMUNICATION TABLE ENTRY    DV002000
&NAME    $HCTENT &OP,&A,&B                                              DV004000
         AIF   ('&SYSECT' EQ 'HASPNUC').B                               DV006000
         AIF   ('&OP' EQ 'B').A                                         DV008000
&NAME    DC    &OP.(&B)                                                 DV010000
         MEXIT                                                          DV012000
.A       ANOP                                                           DV014000
&NAME    B     *                                                        DV016000
         MEXIT                                                          DV018000
.B       AIF   ('&OP' EQ 'B').C                                         DV020000
&NAME    DC    &OP.(&A)                                                 DV022000
         MEXIT                                                          DV024000
.C       B     &NAME                                                    DV026000
         MEND                                                           DV028000
