         MACRO -- $IOERROR -- LOG HASP INPUT/OUTPUT ERROR               D3002000
&NAME    $IOERROR &IOB                                                  D3004000
         $CHEK X,&IOB              INSURE IOB ADDRESS WAS PROVIDED      D3006000
&NAME    $DECODE &IOB,OPA=L        SET UP IOB ADDRESS IN R1             D3008000
         L     R15,$IOERROR        GET I/O ERROR ROUTINE ADDR        R4 D3010000
         BALR  LINK,R15             AND LINK TO IT                   R4 D3012000
         MEND                                                           D3014000
