         MACRO -- $LINK -- BRANCH AND LINK TO ANOTHER HASP SEGMENT      ER002000
&NAME    $LINK &SEG                                                     ER004000
         AIF   ('&SEG'(1,1) EQ '(').B                                   ER006000
         AIF   (K'&SEG LT 5 OR K'&SEG GT 8).ERROR                       ER008000
         AIF   ('&SEG'(1,4) EQ 'HASP').A                                ER010000
.ERROR   MNOTE 8,'ILLEGAL HASP SEGMENT NAME'                            ER012000
         MEXIT                                                          ER014000
.A       ANOP                                                           ER016000
&NAME    L     BASE3,=V(&SEG)      LOAD HASP SEGMENT ADDRESS            ER018000
         AGO   .C                                                       ER020000
.B       ANOP                                                           ER022000
&NAME    L     BASE3,0(,&SEG(1))   LOAD HASP SEGMENT ADDRESS            ER024000
.C       ANOP                                                           ER026000
         BALR  LINK,BASE3           AND LINK TO IT                      ER028000
         MEND                                                           ER030000
