         MACRO -- $MSG -- WRITE TO OPERATOR MESSAGE AREA                E0002000
&NAME    $MSG  &ID,&TEXT,&SYMB=,&JOB=NO                                 E0004000
         LCLA  &L                                                       E0006000
         LCLC  &F                                                       E0008000
         AIF   (K'&ID NE 3).D                                           E0010000
&F       SETC  'F'                                                      E0012000
         AIF   ('&JOB' EQ 'NO').A                                       E0014000
&F       SETC  'E'                                                      E0016000
.A       ANOP                                                           E0018000
&F       SETC  '&ID.&F'                                                 E0020000
         $MID  &ID                                                      E0022000
&L       SETA  K'&TEXT                                                  E0024000
         AIF   (&L LT 3).B                                              E0026000
&NAME    DC    0CL&L.' ',X'&F',C&TEXT                                   E0028000
         AIF   ('&SYMB' EQ '').C                                        E0030000
&L       SETA  &L-2                                                     E0032000
&SYMB    EQU   &NAME+2,&L                                               E0034000
         MEXIT                                                          E0036000
.B       ANOP                                                           E0038000
&NAME    DC    X'&F'                                                    E0040000
         MEXIT                                                          E0042000
.D       ANOP                                                           E0044000
         MNOTE 12,'THREE DIGIT IDENTIFICATION REQUIRED'                 E0046000
.C       MEND                                                           E0048000
