         MACRO -- $PGSRVC -- BRANCH ENTRY TO MVS PAGE SERVICE RTNS   R4 FT002000
&NAME    $PGSRVC &TYPE,&ADDR,&LENGTH,&ECB,&RELEASE=            @OZ20010 FT004000
         LCLB  &BAL                                            @OZ20010 FT005000
         $CHEK   &TYPE,&ADDR                                         R4 FT006000
         $CHEK   X,&LENGTH                                           R4 FT008000
         AIF   ('&TYPE' NE 'FIX').TSTRLSE                      @OZ20010 FT010000
         $CHEK   X,&ECB                                              R4 FT012000
.TSTRLSE AIF   ('&TYPE' EQ 'RLSE').NORLSE                      @OZ20010 FT012100
         AIF   ('&RELEASE' EQ '').A                            @OZ20010 FT012200
         AIF   ('&RELEASE' EQ 'N').A                           @OZ20010 FT012300
         AIF   ('&RELEASE' NE 'Y').INVAL                       @OZ20010 FT012400
&BAL     SETB  1                                               @OZ20010 FT012500
         AGO   .A                                              @OZ20010 FT012600
.NORLSE  AIF   ('&RELEASE' EQ '').A                            @OZ20010 FT012700
.INVAL   MNOTE 8,'INVALID OPERAND -- RELEASE=&RELEASE'         @OZ20010 FT012800
         MEXIT                                                 @OZ20010 FT012900
.A       ANOP                                                        R4 FT014000
&NAME    $DECODE &LENGTH,OPA=L,RA=R0                                 R4 FT016000
         $DECODE &ADDR,OPA=L,RA=R1                                   R4 FT018000
         AIF     ('&TYPE' NE 'FIX').B                                R4 FT020000
         $DECODE &ECB,OPA=L,RA=R2                                    R4 FT022000
.B       ANOP                                                        R4 FT024000
         L     R15,$PG&TYPE        GET PROPER PAGE SERVICE RTN ADDR  R4 FT026000
         AIF   (&BAL).BAL                                      @OZ20010 FT027000
         BALR  LINK,R15             AND LINK TO IT                   R4 FT028000
         MEXIT                                                 @OZ20010 FT029000
.BAL     BAL   LINK,0(,R15)        AND LINK TO IT              @OZ20010 FT029500
         MEND                                                        R4 FT030000
