         MACRO -- $POST -- POST AN EVENT COMPLETE                       FX002000
&NAME    $POST &EWF,&EVENT                                              FX004000
         LCLA  &I,&J,&K                                                 FX006000
         LCLC  &B(10),&N,&MASK,&OFF                                     FX008000
         $CHEK &EWF,&EVENT                                              FX010000
&N       SETC  '&NAME'                                         @OZ27300 FX011000
         AIF   ('&EWF' EQ '$HASPECF').R                                 FX012000
&B(1)    SETC  'POST'                                                   FX014000
&B(2)    SETC  'OPER'                                                   FX016000
&B(3)    SETC  'IO'                                                     FX018000
&B(4)    SETC  'WORK'                                                   FX020000
&B(5)    SETC  'HOLD'                                                   FX022000
&MASK    SETC  ''                                                       FX024000
         AIF   ('&EVENT'(1,1) NE '(').ID                                FX026000
&J       SETA  0                                                        FX028000
.IA      ANOP                                                           FX030000
&J       SETA  &J+1                                                     FX032000
         AIF   (&J GT 5).IF                                             FX034000
&I       SETA  1                                                        FX036000
.IB      AIF   ('&SYSLIST(2,&I)' EQ '&B(&J)').IC                        FX038000
&I       SETA  &I+1                                                     FX040000
         AIF   (&I LE N'&SYSLIST(2)).IB                                 FX042000
         AGO   .IA                                                      FX044000
.IC      ANOP                                                           FX046000
&MASK    SETC  '&MASK'.'-$EWF'.'&B(&J)'                                 FX048000
         AGO   .IA                                                      FX050000
.ID      ANOP                                                           FX052000
&J       SETA  0                                                        FX054000
.IE      ANOP                                                           FX056000
&J       SETA  &J+1                                                     FX058000
         AIF   (&J GT 5).IF                                             FX060000
         AIF   ('&EVENT' NE '&B(&J)').IE                                FX062000
&MASK    SETC  '-$EWF'.'&EVENT'                                         FX064000
.IF      AIF   ('&EWF'(1,1) EQ '(').IG                                  FX066000
&NAME    NI    PCEEWF-PCEDSECT+&EWF,255&MASK RESET INHIBITS             FX068000
         AGO   .IH                                                      FX070000
.IG      ANOP                                                           FX072000
&NAME    NI    PCEEWF-PCEDSECT&EWF,255&MASK RESET INHIBITS              FX074000
.IH      BNZ   *+20                SKIP QUEUEING IF INHIBITED           FX076000
         STM   LINK,R3,$POSTSAV    SAVE REGISTERS                       FX078000
         AIF   ('&EWF'(1,1) EQ '(').II                                  FX080000
         LA    R1,&EWF             POINT TO PCE                         FX082000
         AGO   .IJ                                                      FX084000
.II      LA    R1,0&EWF            POINT TO PCE                         FX086000
.IJ      BAL   LINK,$POST          QUEUE THE PCE ON READY QUEUE         FX088000
         LM    LINK,R3,$POSTSAV    RESTORE REGISTERS                    FX090000
         MEXIT                                                          FX092000
.R       AIF   ('&EVENT'(1,1) NE '(').RG                                FX094000
&B(1)    SETC  'CKPW'                                                   FX096000
&B(2)    SETC  'SMF'                                                    FX098000
&B(3)    SETC  'CMB'                                                    FX100000
&B(4)    SETC  'CKPT'                                                   FX102000
&B(5)    SETC  'UNIT'                                                   FX104000
&B(6)    SETC  'JOB'                                                    FX106000
&B(7)    SETC  'TRAK'                                                   FX108000
&B(8)    SETC  'JOT'                                                    FX110000
&B(9)    SETC  'BUF'                                                    FX112000
&B(10)   SETC  'IMAG'                                                   FX114000
&K       SETA  8                                                        FX116000
&MASK    SETC  ''                                                       FX118000
*                                  THIS CARD DELETED BY APAR   @OZ27300 FX120000
&J       SETA  0                                                        FX122000
.RA      ANOP                                                           FX124000
&J       SETA  &J+1                                                     FX126000
         AIF   (&J GT &K).RE                                            FX128000
&I       SETA  1                                                        FX130000
.RB      AIF   ('&SYSLIST(2,&I)' EQ '&B(&J)').RC                        FX132000
&I       SETA  &I+1                                                     FX134000
         AIF   (&I LE N'&SYSLIST(2)).RB                                 FX136000
         AGO   .RA                                                      FX138000
.RC      AIF   ('&MASK' NE '').RD                                       FX140000
&OFF     SETC  '&B(&J)'                                                 FX142000
.RD      ANOP                                                           FX144000
         AIF   ('&B(&J)' NE 'CKPW').RD1                        @OZ27300 FX145000
&N       OI    $STATUS,$CKPTW      SET CKPT-WRITE REQUEST      @OZ27300 FX145200
&N       SETC  ''                                              @OZ27300 FX145400
.RD1     ANOP                                                  @OZ27300 FX145600
&MASK    SETC  '&MASK'.'-$EWF'.'&B(&J)'                                 FX146000
         AGO   .RA                                                      FX148000
.RE      AIF   ('&MASK' EQ '').RF                                       FX150000
&N       NI    $HASPECF+$EWB&OFF,255&MASK RESET EVENTS                  FX152000
&N       SETC  ''                                                       FX154000
&MASK    SETC  ''                                                       FX156000
.RF      ANOP                                                           FX158000
&J       SETA  &K                                                       FX160000
&K       SETA  &K+2                                                     FX162000
         AIF   (&K LE 10).RA                                            FX164000
         MEXIT                                                          FX166000
.RG      ANOP                                                           FX168000
         AIF   ('&EVENT' NE 'CKPW').RH                         @OZ27300 FX169000
&N       OI    $STATUS,$CKPTW      SET CKPT-WRITE REQUEST      @OZ27300 FX169200
&N       SETC  ''                                              @OZ27300 FX169400
.RH      ANOP                                                  @OZ27300 FX169600
&N       NI    $HASPECF+$EWB&EVENT,FF-$EWF&EVENT RESET EVENT   @OZ27300 FX170000
         MEND                                                           FX172000
