         MACRO -- $PURGE -- FREE DIRECT ACCESS SPACE                    F7002000
&NAME    $PURGE &LOC                                                    F7004000
         $CHEK X,&LOC              INSURE CYL MAP ADDRESS WAS PROVIDED  F7006000
&NAME    $DECODE &LOC              SET UP CYLINDER MAP ADDRESS IN R1    F7008000
         BAL   LINK,$PURGER        LINK TO CONTROL SERVICE PROGRAM      F7010000
         MEND                                                           F7012000
