         MACRO -- $QADD -- ADD ELEMENT TO HASP JOB QUEUE                F9002000
&NAME    $QADD &LOC,&CUE,&NONE                                          F9004000
         $CHEK &LOC,&CUE           INSURE ARGUMENTS WERE PROVIDED       F9006000
&NAME    $DECODE &LOC,&CUE         SET UP ARGUMENT ADDRESSES            F9008000
         BAL   LINK,$QADD          LINK TO CONTROL SERVICE PROGRAM      F9010000
         $NPEXIT &NONE             SET UP NON-PROCESS EXIT              F9012000
         MEND                                                           F9014000
