         MACRO -- $QCKPT -- CHECKPOINT ELEMENT IN HASP JOB QUEUE        GB002000
&NAME    $QCKPT &LOC                                                    GB004000
         $CHEK X,&LOC              INSURE ARGUMENT IS PRESENT           GB006000
&NAME    $DECODE &LOC              GET ARGUMENT ADDRESS TO R1           GB008000
         BAL   LINK,$QCKPT         LINK TO CONTROL SERVICE PROGRAM      GB010000
         MEND                                                           GB012000
