         MACRO -- $QGET -- OBTAIN ELEMENT FROM HASP JOB QUEUE           GD002000
&NAME    $QGET &CUE,&NONE,&NODETBL=                                  R4 GD004000
         $CHEK X,&CUE              INSURE QUEUE TYPE PROVIDED           GD006000
&NAME    $DECODE &CUE,&NODETBL     SET UP PARAMETER REGISTERS        R4 GD008000
         BAL   LINK,$QGET          LINK TO CONTROL SERVICE PROGRAM      GD010000
         $NPEXIT &NONE             SET UP NON-PROCESS EXIT              GD012000
         MEND                                                           GD014000
