         MACRO -- $QLOC -- LOCATE ELEMENT IN HASP JOB QUEUE             GF002000
&NAME    $QLOC &JOBNUM,&NONE                                            GF004000
         $CHEK X,&JOBNUM           INSURE JOB NUMBER WAS PROVIDED       GF006000
&NAME    $DECODE &JOBNUM,OPA=LH    SET UP JOB NUMBER IN R1              GF008000
         BAL   LINK,$QLOC          LINK TO CONTROL SERVICE PROGRAM      GF010000
         $NPEXIT &NONE             SET UP NON-PROCESS EXIT              GF012000
         MEND                                                           GF014000
