         MACRO -- $QMOD -- MODIFY ELEMENT IN HASP JOB QUEUE             GH002000
&NAME    $QMOD &LOC,&CUE                                                GH004000
         $CHEK &LOC,&CUE           INSURE ARGUMENTS ARE PRESENT         GH006000
&NAME    $DECODE &LOC,&CUE         LOAD ARGUMENTS TO R0 AND R1          GH008000
         BAL   LINK,$QMOD          LINK TO CONTROL SERVICE PROGRAM      GH010000
         MEND                                                           GH012000
