         MACRO -- $QPUT -- CHANGE STATUS OF HASP JOB QUEUE ELEMENT      GJ002000
&NAME    $QPUT &LOC,&CUE                                                GJ004000
         $CHEK &LOC,&CUE           INSURE ARGUMENTS WERE PROVIDED       GJ006000
&NAME    $DECODE &LOC,&CUE         SET UP ARGUMENTS IN R1 AND R0        GJ008000
         BAL   LINK,$QPUT          LINK TO CONTROL SERVICE PROGRAM      GJ010000
         MEND                                                           GJ012000
