         MACRO -- $QREM -- REMOVE ELEMENT FROM HASP JOB QUEUE           GK002000
&NAME    $QREM &LOC                                                     GK004000
         $CHEK X,&LOC              INSURE ELEMENT ADDRESS WAS PROVIDED  GK006000
&NAME    $DECODE &LOC              SET UP ELEMENT ADDRESS IN R1         GK008000
         BAL   LINK,$QREM          LINK TO CONTROL SERVICE PROGRAM      GK010000
         MEND                                                           GK012000
