         MACRO -- $QUESMFB -- QUEUE SMF BUFFER ON $SMFBUSY              GN002000
&NAME    $QUESMFB                                                       GN004000
&NAME    BAL   LINK,$QUESMFB       LINK TO CONTROL SERVICE PROGRAM      GN006000
         MEND                                                           GN008000
