         MACRO -- $RELEASE -- RELEASE CHECKPOINT RESERVE       @OZ35278 GU402000
&NAME    $RELEASE &DUMMY                                       @OZ35278 GU404000
&NAME    L     R15,$RELEASA        GET ENTRY POINT ADDRESS     @OZ35278 GU406000
         BALR  R14,R15             RELEASE CHECKPOINT RESERVE  @OZ35278 GU408000
         MEND                                                  @OZ35278 GU410000
