         MACRO -- $RESERVE -- REQUEST CHECKPOINT RESERVE       @OZ35278 GU452000
&NAME    $RESERVE &DUMMY                                       @OZ35278 GU454000
&NAME    L     R15,$RESERVA        GET ENTRY POINT ADDRESS     @OZ35278 GU456000
         BALR  R14,R15             REQUEST CHECKPOINT RESERVE  @OZ35278 GU458000
         MEND                                                  @OZ35278 GU460000
