         MACRO -- $RETURN -- RETURN TO MAIN HASP CONTROL SECTION        GV002000
&NAME    $RETURN                                                        GV004000
&NAME    L     LINK,PCERETN        LOAD RETURN ADDRESS                  GV006000
         BR    LINK                 AND RETURN TO MAIN PROCESSOR        GV008000
         MEND                                                           GV010000
