         MACRO -- $STIMER -- TIME A SPECIFIED INTERVAL                  HL002000
&NAME    $STIMER &LOC                                          @OZ40444 HL004000
         $CHEK X,&LOC              INSURE HASP TQE ADDRESS WAS @OZ40444 HL006000
&NAME    $DECODE &LOC              SET UP HASP TQE ADDRESS IN R@OZ40444 HL008000
         L     R14,$STIMERA        LOAD ADDR OF $STIMER        @OZ40444 HL009000
         BALR  R14,R14              AND LINK TO IT             @OZ40444 HL010000
         MEND                                                           HL012000
