         MACRO -- $SVTC -- GENERATE HASP SSVT FUNCTION MATRIX           HP002000
&NAME    $SVTC                                                          HP004000
&NAME    DC    AL1(($SVSOUT-$SVNULL)/4) ..1 PROCESS SYSOUT              HP006000
         DC    AL1(($SVCANC-$SVNULL)/4) ..2 TSO CANCEL                  HP008000
         DC    AL1(($SVSTAT-$SVNULL)/4) ..3 TSO STATUS                  HP010000
         DC    AL1(($SVEOT-$SVNULL)/4) ...4 END OF TASK                 HP012000
         DC    AL1(($SVJBSL-$SVNULL)/4) ..5 JOB SELECTION               HP014000
         DC    AL1(($SVALOC-$SVNULL)/4) ..6 ALLOCATION                  HP016000
         DC    AL1(($SVUNAL-$SVNULL)/4) ..7 UNALLOCATION                HP018000
         DC    AL1(($SVEOM-$SVNULL)/4) ...8 END OF MEMORY               HP020000
         DC    AL1(($SVWTO-$SVNULL)/4) ...9 WTO                         HP022000
         DC    AL1(($SVCMND-$SVNULL)/4) .10 COMMAND PROCESSING          HP024000
         DC    AL1(($SVUSER-$SVNULL)/4) .11 USERID VALIDITY CHECK       HP026000
         DC    AL1(($SVTERM-$SVNULL)/4) .12 JOB DELETION                HP028000
         DC    AL1(($SVRENQ-$SVNULL)/4) .13 RE-ENQUEUE JOB              HP030000
         DC    AL1(($SVDOM-$SVNULL)/4) ..14 DOM                         HP032000
         DC    X'0'                                                     HP034000
         DC    AL1(($SVOPEN-$SVNULL)/4) .16 OPEN                        HP036000
         DC    AL1(($SVCLOS-$SVNULL)/4) .17 CLOSE                       HP038000
         DC    AL1(($SVCKPT-$SVNULL)/4) .18 CHECKPOINT                  HP040000
         DC    AL1(($SVREST-$SVNULL)/4) .19 RESTART                     HP042000
         DC    AL1(($SVREQID-$SVNULL)/4) 20 REQUEST JOB ID              HP044000
         DC    AL1(($SVRETID-$SVNULL)/4) 21 RETURN JOB ID               HP046000
         MEND                                                           HP048000
