         MACRO -- $TIME -- GET TIME OF DAY                              H3002000
&NAME    $TIME                                                          H3004000
&NAME    TIME  BIN                 GET TIME OF DAY IN BINARY            H3006000
         MEND                                                           H3008000
