         MACRO -- $TRACE -- GENERATE ENTRY IN HASP TRACE TABLE          H9002000
&NAME    $TRACE                                                         H9004000
&NAME    $DECODE ,                 DEFINE LOCATION                      H9006000
         MEND                                                           H9008000
