         MACRO -- $TRACK -- GET A DIRECT ACCESS TRACK ADDRESS           IB002000
&NAME    $TRACK &TRGPMAP,&WAIT=YES                                   R4 IB004000
         $CHEK X,&TRGPMAP          INSURE TRACK GROUP MAP WAS PROVIDED  IB006000
&NAME    $DECODE &TRGPMAP          SET UP TRACK GROUP MAP ADDRESS IN R1 IB008000
         L     R15,$TRACK          GET TRACK ALLOCATION ROUTINE ADDR R4 IB010000
         AIF   ('&WAIT' NE 'YES').A                                  R4 IB012000
         BALR  LINK,R15             AND ENTER IT                     R4 IB014000
         MEXIT                                                       R4 IB016000
.A       BAL   LINK,0(,R15)         AND ENTER IT                     R4 IB018000
         MEND                                                        R4 IB020000
