         MACRO -- $TTIMER -- REQUEST TIME REMAINING / OPTIONALLY CANCEL ID002000
&NAME    $TTIMER &LOC,&CANCEL                                  @OZ40444 ID004000
         $CHEK X,&LOC              INSURE HASP TQE ADDRESS WAS @OZ40444 ID006000
&NAME    $DECODE &LOC              SET UP HASP TQE ADDRESS IN R@OZ40444 ID008000
         AIF   ('&CANCEL' NE 'CANCEL').B                       @OZ40444 ID010000
         LCR   R1,R1               COMPLEMENT TO INDICATE 'CANC@OZ40444 ID012000
.B       L     R14,$TTIMERA        LOAD ADDR OF $TTIMER        @OZ40444 ID013000
         BALR  R14,R14              AND LINK TO IT             @OZ40444 ID014000
         MEND                                                           ID016000
