         MACRO -- $VFL -- VFL INSTRUCTION SIMULATION                 R4 IK002000
&NAME    $VFL  &OP,&T,&F,&LEN                                        R4 IK004000
         LCLA  &NDX                                                  R4 IK006000
&NDX     SETA  0                                                     R4 IK008000
         AIF   ('&OP' EQ 'NC').A                                     R4 IK010000
&NDX     SETA  &NDX+6                                                R4 IK012000
         AIF   ('&OP' EQ 'OC').A                                     R4 IK014000
&NDX     SETA  &NDX+6                                                R4 IK016000
         AIF   ('&OP' EQ 'XC').A                                     R4 IK018000
&NDX     SETA  &NDX+6                                                R4 IK020000
         AIF   ('&OP' EQ 'MVC').A                                    R4 IK022000
         MNOTE 8,'VFL OPERATION NOT DEFINED'                         R4 IK024000
         MEXIT                                                       R4 IK026000
.A       ANOP                                                        R4 IK028000
         $CHEK &T,&F                                                 R4 IK030000
         $CHEK &LEN,&LEN                                             R4 IK032000
&NAME    $DECODE &T,&LEN                                             R4 IK034000
         $DECODE &F,RA=R15                                           R4 IK036000
         AIF   (&NDX EQ 0).B                                         R4 IK038000
         ICM   R1,8,=AL1(&NDX)     PROVIDE INSTRUCTION OFFSET        R4 IK040000
         AGO   .C                                                    R4 IK042000
.B       LA    R1,0(,R1)           PROVIDE INSTRUCTION OFFSET        R4 IK044000
.C       AIF   ('&SYSECT' NE 'HASPSSSM').D                           R4 IK046000
         L     R14,$SVVFL          POINT TO VFL INSTRUCTION ROUTINE  R4 IK048000
         BALR  R14,R14              AND LINK TO IT                   R4 IK050000
         MEXIT                                                       R4 IK052000
.D       L     LINK,$VFL           POINT TO VFL INSTRUCTION ROUTINE  R4 IK054000
         BALR  LINK,LINK            AND LINK TO IT                   R4 IK056000
         MEND                                                        R4 IK058000
