         MACRO -- $WAIT -- WAIT ON AN EVENT TO COMPLETE              R4 IL002000
&NAME    $WAIT &EVENT,&INHIBIT=YES,&SAVE=YES,&REENTRY=               R4 IL004000
         GBLC  &C                                                    R4 IL006000
         GBLC  &S                                                    R4 IL008000
         GBLB  &BRANCH                                               R4 IL010000
         GBLB  &RESRC                                                R4 IL012000
         GBLC  &EWF                                                  R4 IL014000
&C       SETC  '&EVENT'                                              R4 IL016000
&S       SETC  ''                                                    R4 IL018000
&RESRC   SETB  0                                                     R4 IL020000
&BRANCH  SETB  0                                                     R4 IL022000
&EWF     SETC  '&C'                                                  R4 IL024000
         AIF   ('&C' EQ 'POST' OR '&C' EQ 'OPER' OR '&C' EQ 'IO' OR '&CCIL026000
               ' EQ 'WORK' OR '&C' EQ 'HOLD').A                      R4 IL028000
&RESRC   SETB  1                                                     R4 IL030000
&EWF     SETC  'POST'                                                R4 IL032000
.A       AIF   ('&SAVE' EQ 'NO').B                                   R4 IL034000
&S       SETC  'S'                                                   R4 IL036000
.B       AIF   ('&INHIBIT' EQ 'YES').C                               R4 IL038000
&NAME    MVI   PCEEWF,0            SET NO INHIBITORS                 R4 IL040000
         AGO   .D                                                    R4 IL042000
.C       ANOP                                                        R4 IL044000
&NAME    MVI   PCEEWF,$EWF&EWF     SET INHIBITOR                     R4 IL046000
.D       AIF   ('&REENTRY' EQ '').E                                  R4 IL048000
         $DECODE &REENTRY,OPA=L,RA=R15                         @OZ34898 IL050000
&BRANCH  SETB  1                                                     R4 IL052000
.E       AIF   (&RESRC EQ 0).H                                       R4 IL054000
         AIF   ('&S' NE 'S').F                                       R4 IL056000
         STM   LINK,BASE2,PCELINK  SAVE REGISTERS IN PCE             R4 IL058000
.F       ANOP                                                        R4 IL060000
         LA    R1,$EWQ&EVENT-(PCEPCEA-PCEDSECT) POINT TO PCE ZERO    R4 IL062000
         AIF   (&BRANCH EQ 0).G                                      R4 IL064000
         B     $WAITR              WAIT ON A RESOURCE                R4 IL066000
         MEXIT                                                       R4 IL068000
.G       ANOP                                                        R4 IL070000
         BAL   R15,$WAITR          WAIT ON A RESOURCE                R4 IL072000
         MEXIT                                                       R4 IL074000
.H       AIF   (&BRANCH EQ 0).I                                      R4 IL076000
         B     $WAIT&S             WAIT FOR SPECIFIC PCE POST        R4 IL078000
         MEXIT                                                       R4 IL080000
.I       ANOP                                                        R4 IL082000
         BAL   R15,$WAIT&S         WAIT FOR SPECIFIC PCE POST        R4 IL084000
         MEND                                                        R4 IL086000
