         MACRO -- $XCTL -- BRANCH TO ANOTHER HASP SEGMENT               IR002000
&NAME    $XCTL &SEG                                                     IR004000
         AIF   ('&SEG'(1,1) EQ '(').A                                   IR006000
         AIF   (K'&SEG LT 5 OR K'&SEG GT 8).ERROR                       IR008000
         AIF   ('&SEG'(1,4) EQ 'HASP').A                                IR010000
.ERROR   MNOTE 8,'ILLEGAL HASP SEGMENT NAME'                            IR012000
         MEXIT                                                          IR014000
.A       ANOP                                                           IR016000
&NAME    L     LINK,PCERETN        LOAD RETURN ADDRESS                  IR018000
         AIF   ('&SEG'(1,1) EQ '(').B                                   IR020000
         L     BASE3,=V(&SEG)      LOAD HASP SEGMENT ADDRESS            IR022000
         AGO   .C                                                       IR024000
.B       ANOP                                                           IR026000
         L     BASE3,0(,&SEG(1))   LOAD HASP SEGMENT ADDRESS            IR028000
.C       ANOP                                                           IR030000
         BR    BASE3                AND BRANCH TO IT                    IR032000
         MEND                                                           IR034000
