         MACRO -- $XMPOST -- BRANCH ENTRY CROSS MEMORY POST ROUTINE     IT002000
&NAME    $XMPOST &SJB                                                   IT004000
&NAME    $DECODE &SJB                                                   IT006000
         L     R15,$XMPOST         GET XM POST ROUTINE ADDRESS          IT008000
         BALR  LINK,R15             AND LINK TO IT                      IT010000
         MEND                                                           IT012000
