         MACRO -- NULL -- DEFINE A SYMBOL                               Z0002000
&NAME    NULL                                                           Z0004000
&NAME    DS    0H                                                       Z0006000
         MEND                                                           Z0008000
