         MACRO                                                          00090000
&NAME    IEBMCA                                                         00180000
*A 976365                                                      @YM06438 00182002
*C 976364                                                      @YM06438 00184002
*A 976364                                                      @YM06433 00186002
*C 976200-976480,976899                                        @YM06433 00188002
*D 976484-976799,976999-977360                                 @YM06433 00188402
*A976420-977360                                                @YM04848 00190002
*D655200,A654900-655500                                         OY01182 00200002
*A966100-976400                                                 YL026VD 00210002
*A664200,928800                                                  A36049 00220021
*A711900-712100                                                  A44345 00230021
* 155700,179100,229500,236700,324900,839700,859500               X010XX 00230100
*C229500-230900,236700-238500                                    A45170 00240022
* 472500,475200,481500                                           X010XX 00240100
*A756500-756840                                                  A48742 00250022
*A236700                                                        YA01689 00260002
*                                                                       00270000
**********       C O M M U N I C A T I O N    A R E A        ********** 00360000
**********                  I E B D S C P Y                  ********** 00450000
*                                                                       00540000
         SPACE 2                                                        00630000
* ABBREVIATIONS USED FREQUENTLY -                                       00720000
*        ODE = OUTPUT DIRECTORY ENTRY                                   00810000
*        IDE = INPUT DIRECTORY ENTRY                                    00900000
         SPACE 2                                                        00990000
*                                                                       01080000
* SETAB = SELECT/EXCLUDE TABLE                                          01170000
*        THE SETAB CONSISTS OF 10-BYTE ENTRIES.  ENTRIES ARE MADE TO    01260000
*        THIS TABLE WHEN -                                              01350000
*              1) A SELECTIVE COPY HAS BEEN SPECIFIED.  EACH ENTRY IS   01440000
*              FOR THE NAME OF A MEMBER TO BE SELECTED.  IF A MEMBER IS 01530000
*              TO BE RENAMED, TWO 10-BYTE ENTRIES ARE MADE IN THE SETAB 01620000
*              2) AN EXCLUSIVE COPY HAS BEEN SPECIFIED.  EACH ENTRY IS  01710000
*              FOR THE NAME OF A MEMBER TO BE EXCLUDED.                 01800000
*        NOTE- IN THE CASE OF A SELECTIVE COPY (AND ONLY IN THIS CASE), 01890000
*              THE SETAB WILL ALSO BE USED AS THE CTLTAB.  IN ALL OTHER 01980000
*              CASES, A SEPARATE CTLTAB WILL BE CONSTRUCTED.            02070000
*        BYTE 0 OF AN ENTRY IS DESIGNATED AS SEFLAG1.  WITHIN THIS BYTE 02160000
*        THE FOLLOWING BITS HAVE MEANING -                              02250000
SEBIT1   EQU   X'80' ON=THIS IS A NEWNAME ENTRY                         02340000
SEBIT2   EQU   X'40' ON=THIS IS A RENAMED ENTRY                         02430000
SEBIT3   EQU   X'20' ON=REPLACE OPTION WAS SPECIFIED FOR THIS MEMBER    02520000
SEBIT4   EQU   X'10' ON=DONTCOPY FLAG...DO NOT PROCESS THIS ENTRY       02610000
SEBIT5   EQU   X'08' ON= THIS MEMBER HAS BEEN ''FOUND'' ON INPUT D.S.   02700000
SEBIT6   EQU   X'04' ON= THIS IS LAST ENTRY IN SETAB/CTLTAB             02790000
*        LO ORDER 2 BITS NOT USED                                       02880000
*        NOTE THE DEFINITION OF SEBIT3.  IF, IN THE INDD TABLE, BYTE 0  02970000
*              BIT 2 IS ON, THIS MEANS THAT THE REPLACE OPTION WAS SPE- 03060000
*              CIFIED FOR ALL MEMBERS COPIED FROM THIS INDD.  IT IS     03150000
*              VALID FOR BOTH OF THESE BITS TO BE ON AT THE SAME TIME,  03240000
*              ALTHOUGH IF THE BIT IS ON IN THE INDD TABLE, IT IS UN-   03330000
*              NECESSARY FOR SEBIT3 TO ALSO BE ON IN THE SETAB.         03420000
         EJECT                                                          03510000
* FOLLOWING IS A DESCRIPTION OF THE CONTROL TABLE -CTLTAB-              03600000
* (REMEMBER THAT THIS TABLE IS PHYSICALLY THE SAME TABLE AS SETAB WHEN  03690000
* A SELECTIVE COPY OPERATION IS SPECIFIED, BUT IS PHYSICALLY INDEPEN-   03780000
* DENT AND DISTINCT FROM THE SETAB FOR AN EXCLUSIVE COPY OPERATION.     03870000
* THERE IS NO SETAB FOR A FULL COPY OPERATION, AND THE CTLTAB IN THIS   03960000
* CASE IS CONSTRUCTED SIMILARLY TO WHEN AN EXCLUSIVE COPY IS SPECIFIED. 04050000
* SINCE THE SETAB AND CTLTAB ARE ONE AND THE SAME FOR A SEL. COPY, THIS 04140000
*  DESCRIPTION WILL ASSUME THAT A SELECTIVE COPY IS BEING DONE, FOR THE 04230000
*  PURPOSE OF SETTING UP THE TABLE INITIALLY.)....                      04320000
         SPACE 2                                                        04410000
*        INITIAL TABLE, FOLLOWING CCSCAN PROCESSING OF ''SELECT'' -     04500000
*********************************************************************** 04590000
*SEFLAG1 *SEFLAG2 * NAME OF MEMBER TO BE SELECTED, OR, IF SPECIFIED,  * 04680000
*(DESCR. *(UNUSED)* NEWNAME.  IF NEWNAME WAS SPECIFIED, THE TABLE WILL* 04770000
* ABOVE) *        * CONTAIN 1 ENTRY FOR OLDNAME AND ANOTHER FOR NEW.  * 04860000
*********************************************************************** 04950000
* 1 BYTE * 1 BYTE *----------------------8 BYTES----------------------* 05040000
         SPACE 2                                                        05130000
* OLDNAME/NEWNAME PAIRS ARE NOW EXTRACTED FROM THE SETAB.  THEN THE     05220000
* CTLTAB IS SORTED ALPH. BY MBRNAME, AND A NEWNAME PTRTABLE SET UP.     05310000
* WHEN THIS HAS BEEN DONE, THE INPUT DATA SET'S DIRECTORY IS SEARCHED   05400000
* FOR MATCHING NAMES (THE NEWNAME ENTRIES IN THE TABLE ARE NOT USED FOR 05490000
* THIS COMPARISON).  WHEN A MATCHING MEMBERNAME IS FOUND, THE DIRECTORY 05580000
* ENTRY IS RETAINED IN CORE (IF SPACE PERMITS), OR IT IS SPILLED ONTO   05670000
* SYSUT3.  IN EITHER CASE, THE CORE ADDRESS OR THE TTR+INDICATOR ARE    05760000
* PUT INTO THE CTLTAB, OVERLAYING THE HIGH-ORDER 4 BYTES OF 'OLDNAME'.  05850000
* THE MEMBER-TTR IS EXTRACTED FROM THE DIRECTORY ENTRY, AND OVERLAYS    05940000
* THE LOW-ORDER 4 BYTES OF 'OLDNAME' IN THE CTLTAB.  SEBIT5 IS TURNED   06030000
* ON.  IF THIS IS AN ALIAS ENTRY, SEFLAG2 IS SET AS FOLLOWS -           06120000
ALIAS    EQU   X'80'         TO TEST FOR AND SET ALIAS DIRECTORY ENTRY  06210000
         SPACE 2                                                        06300000
*        CTLTAB ENTRY FOR A ''FOUND'' MEMBER -                          06390000
         SPACE 2                                                        06480000
*********************************************************************** 06570000
*SEFLAG1 *SEFLAG2 * INDIC. * ADDR OF THE IN-* ZEROES *   MEMBER TTR   * 06660000
*        *        *  BYTE  * PUT DIR. ENTRY *        *                * 06750000
*********************************************************************** 06840000
*-1 BYTE-*-1 BYTE-*-1 BYTE-*-----3 BYTES----*-1 BYTE-*-----3 BYTES----* 06930000
         SPACE 2                                                        07020000
* THE INDICATOR BYTE IS ZEROES IF THE DIRECTORY ENTRY IS IN CORE, OR IT 07110000
* IS HEX '01' IF THE DIRECTORY ENTRY WAS SPILLED TO SYSUT3.             07200000
* NOTE THAT CTLTAB ENTRIES FOR A ''NEWNAME'' ARE NOT OVERLAYED OR AL-   07290000
* TERED AT ANY TIME.  ONCE THE ENTIRE INPUT DIRECTORY HAS BEEN SCANNED, 07380000
* (OR AT LEAST ALL ENTRIES FOR MEMBERS TO BE COPIED FROM THIS INPUT     07470000
* DATA SET HAVE BEEN BUILT), THE OUTPUT DATA SET DIRECTORY IS READ.     07560000
* MEMBERNAMES OF MEMBERS CURRENTLY IN THE OUTPUT DATA SET ARE COMPARED  07650000
* AGAINST MEMBERNAMES OF MEMBERS REFERENCED IN THE CTLTAB FOR THE CUR-  07740000
* RENT INPUT DATA SET, UNLESS THE LATTER WERE RENAMED.  IF THE INPUT    07830000
* MEMBER IS RENAMED, THEN THE NEWNAME IS COMPARED AGAINST THE OUTPUT.   07920000
* IF DUPLICATE NAMES ARE ENCOUNTERED, AND IF THE REPLACE OPTION WAS NOT 08010000
* SPECIFIED ON EITHER THE INDD LEVEL OR THE MEMBERNAME LEVEL, THEN THE  08100000
* DONT-COPY BIT (SEBIT4) IS SET IN THE FLAG BYTE OF THE APPROPRIATE     08190000
* CTLTAB ENTRY, AND THE INDIC. BYTE (BYTE 3) OF THIS ENTRY IS SET TO    08280000
* HEX 'FF'.                                                             08370000
* THINK OF THE LOW-ORDER 8-BYTES OF EACH ''FOUND'' CTLTAB ENTRY AS BE-  08460000
* ING DIVIDED INTO A LEFT HALF (INDIC. + DIR. ENTRY ADDR.) AND A RIGHT  08550000
* HALF (ZEROES + MBR. TTR).  THE LEFT HALF NOW REPRESENTS DIRECTORY     08640000
* ENTRIES FOUND IN THE CURRENT INPUT DATA SET, AND IS IN ALPHAMERIC     08730000
* SEQUENCE.                                                             08820000
         EJECT                                                          08910000
* THE NEXT STEP IN CTLTAB PROCESSING CAUSES THE ''FOUND'' ENTRIES TO BE 09000000
* MANIPULATED, WITH THE RESULT BEING THAT THE LEFT HALF CONTAINS (IN-   09090000
* DIC + ADDR OF DIR. ENTRY) IN SEQUENCE BY MEMBER TTR, AND THE RIGHT    09180000
* HALF CONTAINS THIS SAME INFORMATION (INDIC. + ADDR OF DIR. ENTRY) IN  09270000
* ALPHAMERIC SEQUENCE, OVERLAYING THE ACTUAL MEMBER TTR.  ANOTHER RE-   09360000
* SULT OF THIS MANIPULATION OF THE CTLTAB IS THAT MAIN-MEMBER ENTRIES   09450000
* PRECEDE THE CORRESPONDING ALIAS ENTRIES.  NOTE THAT THE BITS SET IN   09540000
* SEFLAG1 ARE NOW ONLY USEFUL FOR THE ''RIGHT HALF'' OF THE CTLTAB,     09630000
* SINCE THEY ARE NOT MANIPULATED AND THUS REMAIN IN THE ORIGINAL (AL-   09720000
* PHABETIC) SEQUENCE.                                                   09810000
         SPACE 2                                                        09900000
*        CTLTAB ENTRY FOR A FOUND MEMBER FOLLOWING TTR SORT -           09990000
         SPACE 2                                                        10080000
*********************************************************************** 10170000
*SEFLAG1 *SEFLAG2 * INDIC. * ADDR OF IN. DE * INDIC. * ADDR OF IN. DE * 10260000
*        *        *  BYTE  *                *  BYTE  *                * 10350000
*        *        *IN SEQ BY MEMBER TTR     *IN SEQ ALPHAMERICALLY    * 10440000
*********************************************************************** 10530000
* 1 BYTE-*-1 BYTE-*-1 BYTE-*-----3 BYTES----*-1 BYTE-*-----3 BYTES----* 10620000
         SPACE 2                                                        10710000
* AT THIS POINT, THERE IS NO LOGICAL RELATIONSHIP BETWEEN THE LEFT AND  10800000
* RIGHT HALVES OF THE RELEVANT CTLTAB ENTRIES.  BOTH HALVES CONTAIN THE 10890000
* SAME INFORMATION, BUT IT IS IN TWO DIFFERENT SEQUENCES.  NOTE THAT,   10980000
* IF A MEMBER BEING LOOKED FOR IS NOT ''FOUND'', ITS CTLTAB ENTRY RE-   11070000
* MAINS UNALTERED - THE NAME IS STILL UN-OVERLAYED.                     11160000
* FROM THIS POINT ON, THOSE MEMBERS OF THE INPUT DATA SET WHOSE DIREC-  11250000
* TORY ENTRIES ARE REFERENCED IN THE CTLTAB WILL BE COPIED, PROVIDED    11340000
* THAT THEY ARE ''FOUND'' AND NOT FLAGGED AS ''DONT-COPY''.  THEN THE   11430000
* DIRECTORY ENTRIES WILL BE MERGED.  AS THE MERGE IS PERFORMED, WHEN AN 11520000
* INPUT DE IS MERGED, IF THIS IS A SELECTIVE COPY, THE DONT-COPY BIT    11610000
* (SEBIT4) IS TURNED ON, THUS ALLOWING FOR THESE ENTRIES IN THE CTLTAB  11700000
* TO BE IGNORED IN SUBSEQUENT PASSES THROUGH THE SAME TABLE FOR THE EN- 11790000
* SUING INPUT DATA SETS.                                                11880000
JSTCPD   EQU   X'10'              IF ON IN THE 2ND BYTE OF A CTLTAB EN- 11970000
*                                 TRY (SEFLAG2), THERE IS A NAME (CON-  12060000
*                                 TAINED IN THE 3RD THROUGH 10TH BYTES  12150000
*                                 OF THIS ENTRY) OF AN INPUT MEMBER     12240000
*                                 WHICH HAS BEEN SUCCESSFULLY COPIED.   12330000
*                                 THIS MEMBERNAME WILL BE PRINTED BY    12420000
*                                 THE TERMINATION MODULE (IEBVTM) UNDER 12510000
*                                 APPROPRIATE CONDITIONS, AT WHICH TIME 12600000
*                                 THIS BIT WILL BE TURNED OFF.          12690000
*********************************************************************** 12780000
         EJECT                                                          12870000
*XXXXXXXXXX    EVERY CONSTANT BETW. HERE AND NXT X'S MUST BE CONTIGUOUS 12960000
* ALL CONSTANTS BETWEEN X'S ARE SET TO ZERO FOR EVERY INPUT DATA SET.   13050000
* THE NAMES OF THE CONSTANTS WHICH ARE INCLUDED IN THIS CONTIG. AREA -  13140000
* CDCT, FCT, NNTCT, OLDTTR, FLG5                                        13230000
* ICPT,SVLSTO,SVFSTO,FLG2,FLG6,SWITCH1,UTTRFLAG,OBCT                    13320000
         SPACE 2                                                        13410000
         DS    0F                 ALIGNMENT                             13500000
ICPT     DC    F'0'          ADDR OF LAST CTLTAB ENTRY WHICH REFERENCED 13590000
*                            AN IN-CORE INPUT D.E.                      13680000
SVFSTO   DC    AL4(0)        ADDR OF 1ST OUT DIR BLOCK SAVED IN CORE    13770000
SVLSTO   DC    AL4(0)        ADDR OF LAST OUT DIR BLOCK SAVED IN CORE   13860000
*                                                                       13950000
CDCT     DC    HL2'0'        COUNT OF NBR OF ENTRIES IN CTLTAB WHICH    14040000
*                            REFERENCE INPUT D-E'S WHICH WERE RETAINED  14130000
*                            IN CORE (IE, NOT ''SPILLED'')              14220000
FCT      DC    HL2'0'        COUNT OF THE NUMBER OF 'FOUND' MEMBERS     14310000
*                            WHICH ARE TO BE COPIED FROM THE CURRENT    14400000
*                            INPUT DATA SET                             14490000
NNTCT    DC    HL2'0'        COUNTER USED FOR INDEXING THROUGH NEWNAME  14580000
*                            POINTER TABLE (NNPTRTAB)                   14670000
OLDTTR   DS    XL3           IN TTR OF MOST RECENT MBR ACTUALLY COPIED  14760000
*                                                                       14850000
FLG2     DC    X'00'              FLAGS/SWITCHES                        14940000
TRKS2    EQU   X'80'              ON = 2 TRACK-LENGTH BFRS ALLOCATED    15030000
MBUSED   EQU   X'40'              ON = MINIMUM I/O BFR-SIZE NOW ALLOC   15120000
RDEOF    EQU   X'20'              ON = EOF OCCURRED ON DS BEING READ    15210000
FSTWRT   EQU   X'10'              ON = 1ST BFR-FULL OF DATA FOR CURRENT 15300000
*                                 MEMBER HAS BEEN COPIED BY IEBMNM RTNE 15390000
FMTSPL   EQU   X'08'         ON = NEED TO WRT CT-KEY-DATA IF TO UT3     15480000
NBRK     EQU   X'04'              ON=SIZE PARM GIVEN IN K        X010XX 15570000
*              LOW ORDER 2 BITS NOT USED - RESERVED              X010XX 15620000
         SPACE 1                                                        15660000
FLG5     DC    XL1'0'        SWITCHES / FLAGS                           15750000
DEFSW    EQU   X'80'         ON = IEBMGD SUBRTNE INITIALIZATION SWITCH  15840000
OSCAN    EQU   X'40'         ON = SCAN OF OUT. D.E'S HAS BEEN INITIAL-  15930000
*                                 IZED FOR CURRENT INPUT D.S.           16020000
NSP      EQU   X'20'         ON = NO (MORE) SPACE TO KEEP ANY OUT. D.E. 16110000
OSW1     EQU   X'10'         ON = PRE-SCAN OF OUT. DIR. IS BEING DONE   16200000
*              LO ORDER 4 BITS NOT USED - RESERVED                      16290000
*                                                                       16380000
         SPACE 1                                                        16470000
FLG6     DC    X'0'          SWITCH                                     16560000
OIC      EQU   X'80'         ON = ALL ODE BLOCKS ARE RETAINED IN CORE   16650000
ODIC     EQU   X'40'         ON = SOME, BUT NOT ALL, ODE'S RETAINED     16740000
CPYSW    EQU   X'20'         ON = IEBMGI CALLED DURING CTLTAB TTR PROC. 16830000
SPL      EQU   X'10'         ON = SPILL OF INPUT D.E'S TO UT3 OCCURRED  16920000
*              LO ORDER 4 BITS NOT USED - RESERVED                      17010000
*                                                                       17100000
SWITCH1  DC    X'00'         SWITCHES                                   17190000
TIME1    EQU   X'80'         ON = IEBMGI HAS INITIALIZED ITSELF FOR THE 17280000
*                                 CURRENT PHASE OF PROCESSING           17370000
ENTERNN  EQU   X'40'         ON = NEED TO PUT NEWNAME INTO DIR ENTRY    17460000
MGINODE  EQU   X'20'         ON = AN I/O ERROR READING FROM SYSUT3 HAS  17550000
*                                 CAUSED THE REQUESTED IDE NOT TO BE    17640000
*                                 READ INTO CORE CORRECTLY - IEBMGI HAS 17730000
*                                 NO IDE TO PASS BACK TO THE CALLER     17820000
UNLDTM   EQU   X'10'         FIRST TIME THROUGH IEBDSU           X010XX 17910000
*              LOW ORDER 4 BITS NOT USED-RESERVED                X010XX 17960000
*                                                                       18000000
UTTRFLAG DC    XL1'00'                 FLAG FIELD FOR USER AND NOTE-    18090000
*                                 LIST PROCESSING BY IEBVWS             18180000
* HIGH ORDER THREE BITS ARE USED INTERNALLY BY IEBVWS FOR NOTE-LIST AND 18270000
*        USER TTR PROCESSING                                            18360000
NOTELIST EQU   X'10'         ON = NOTELIST FOUND BY IEBVWS              18450000
*              LO ORDER 4 BITS NOT USED - RESERVED                      18540000
*                                                                       18630000
*                                                                       18720000
OBCT     DC    HL2'0'        ACTUAL NO OUTPUT BLOCKS SAVED IN CORE      18810000
*                                                                       18900000
*XXXXXXXXXX ALL CONSTANTS BETW. HERE AND PREV X'S MUST BE CONTIGUOUS    18990000
         EJECT                                                          19080000
*********************************************************************** 19170000
BCB      DS    4F                 BUFFER CONTROL BLOCK                  19260000
* THERE WILL ALWAYS BE AT LEAST 1 PR OF BUFFERS ALLOCATED - IF CORE     19350000
* SPACE EQUAL TO OR GREATER THAN THE SIZE OF THE 1ST PR OF BFRS IS      19440000
* AVAILABLE FOR THE COPY PHASE, THE 2ND BFR SPACE WILL BE ALLOCATED TO  19530000
* USE ALL OF THIS EXTRA CORE                                            19620000
* THE BCB IS RE-SET WHENEVER ANOTHER INPUT DATASET IS TO BE PROCESSED.  19710000
         ORG   BCB                                                      19800000
FLG1     DC    X'0'          FLAG BYTE FOR BCB                          19890000
P2FLG1   EQU   X'80'         ON = 2 DISCONTIGUOUS BUFFERS ARE ALLOCATED 19980000
IN2ND    EQU   X'40'         ON = PROCESSING BEING DONE WITHIN THE 2ND  20070000
*                                 BUFFER                                20160000
STOPEND1 EQU   X'20'         ON = READ (IEBDRD) OR PREPARE TO WRITE     20250000
*                                 (IEBVWS) ONLY ONE BUFFER              20340000
*              LO ORDER 5 BITS NOT USED - RESERVED                      20430000
BEGFST1  DC    AL3(0)        ADDR OF BEGINNING OF 1ST BUFFER AREA       20520000
ENDFST1  DC    AL4(0)        ADDR OF END OF 1ST BUFFER AREA             20610000
BEGFST2  DC    AL4(0)        ADDR OF BEGINNING OF 2ND BUFFER AREA       20700000
END2ND2  DC    AL4(0)        ADDR OF END OF 2ND BUFFER AREA             20790000
* END OF BUFFER CONTROL BLOCK (BCB)                                     20880000
*********************************************************************** 20970000
*             3 FLAGS BELOW ARE IN FLAG FIELD BUILT AHEAD OF RECORDS IN 21060000
*         I/O BUFFER.  READ PCI SETS 'ENDPROC' AND 'LASTREC' AND WRITE  21150000
*         SETUP SETS 'WRTOVR'- FLAGS USED BY WRITE AND WRITE/PCI.       21240000
*                                                                     * 21330000
ENDPROC  EQU   X'80'         IN I/O BFR, THIS BIT ON IN FLGS =          21420000
*                            THIS IS THE LAST RECORD IN ANY BUFFER      21510000
LASTREC  EQU   X'40'         IN I/O BFR, THIS BIT ON IN FLGS =          21600000
*                            THIS IS THE LAST RECORD IN CURRENT BUFFER  21690000
WRTOVR   EQU   X'20'         IN I/O BFR, THIS BIT ON IN FLGS =          21780000
*                            THIS RECORD IS A SEGMENT (NOT THE LAST     21870000
*                            SEGMENT) OF AN OVERFLOW RECORD             21960000
         SPACE 2                                                        22050000
MAXBUF   DC    F'0'          MAX BUFFER LENGTH SPECIFIED         X010XX 22100000
BUFSIZ   DC    F'0'          SIZE IN BYTES OF 1 IO BFR(BEG2ND1-BEGFST1) 22140000
MINSIZ   DC    F'0'               LENGTH OF MINIMUM SIZE OF I/O BFR-PR  22230000
MAXBLK   DC    F'0'               LENGTH OF 1/2 OF MINSIZ               22320000
READNEXT DC    AL4(0)        SET WHEN READ CALLED - TELLS WHERE TO READ 22410000
WRTNEXT  DC    AL4(0)             POINTER TO WHERE START WRITING FROM   22500000
LASTMREC DS    F POINTER TO LAST EOF IN A BUFFER NOT YET WRITTEN        22590000
EOREAD   DC    A(0)  POINTER TO END OF LAST RECORD READ-COMPRESS        22680000
         EJECT                                                          22770000
         DS    0F                                                       22860000
ADWANT   DC    X'00002000'   LENGTH OF MINIMUM USABLE AMT OF COREX010XX 22950000
*                            CORE FOR VARIABLE                   A45170 23040022
*                            CONDITIONAL GETMAIN                 A45170 23090022
ADWANTHI DC    X'00100000'   LENGTH OF MAXIMUM USABLE AMOUNT OF CORE    23130000
*                            (THIS IS AN ARBITRARY LIMIT)               23220000
ADGOT    DC    F'0'          GETMAIN PUTS ADDR OF CORE HERE             23310000
LENGOT   DC    F'0'          GETMAIN PUTS LENGTH OF CORE HERE           23400000
*                            ADGOT AND LENGOT ARE USED TO FREE CORE AT  23490000
*                            TERMINATION OF PROGRAM                     23580000
FREEAMT  DC    X'00002000'   LENGTH OF CORE RELEASED FOR USE BY YA01689 23670002
*               USE BY SYSTEM (OPEN, CLOSE, EOV, SYNADAF, ETC)   A45170 23760022
*                   (THIS MUST BE A MULTIPLE OF 8)               A45170 23850022
FREEAMT2 DC    X'00000C00'   CORE FREED FOR TAPE WORKAREA        X010XX 23900000
* NOTE - VALUE OF 'FREEAMT' MAY BE CHANGED IF IT IS EITHER NOT ENOUGH   23940000
*        OR TOO MUCH CORE TO RELINQUISH FOR SYSTEM UTILIZATION.  IN ANY 24030000
*        CASE, THE VALUE OF THIS CONSTANT SHOULD BE CONSIDERED WITH RE- 24120000
*        LATION TO THE MINIMUM AMOUNT OF CORE SPECIFIED IN THE CONSTANT 24210000
*        NAMED 'ADWANT'.                                                24300000
ACOPYR1  DC    A(0)          ADDRESS OF COPYR1 HEADER            X010XX 24350000
*                            RECORD BUFFER                       X010XX 24360000
ACOPYR2  DC    A(0)          ADDRESS OF COPYR2 HEADER            X010XX 24370000
*                            RECORD BUFFER                       X010XX 24380000
ADNL     DC    F'0'          ADDR OF NOTE-LIST AREA                     24390000
ADWK     DC    F'0'          ADDR OF WORK-AREA                          24480000
WKLEN    EQU   128           LENGTH OF WKAREA - ALSO USED FOR SYSUT3 IO 24570000
HDRLEN   DC    H'344'        LENGTH OF HEADER RECORDS            X010XX 24620000
INBEGIN  DC    F'0'          ADDRESS OF START OF INDD TABLE             24660000
NXTINDS  DS    F             ADDR OF INDD TABLE ENTRY FOR THE CURRENT   24750000
*                            INPUT DATA SET'S DDNAME (IN THE CURRENT    24840000
*                            INDD GROUP)                                24930000
REPLACOP EQU   SEBIT3        IF ON IN HI-ORDER BYTE OF AN INDD-TABLE    25020000
*                            ENTRY, THE REPLACE OPTION WAS SPECIFIED    25110000
*                            FOR THIS INPUT DATA SET.                   25200000
SEBEGIN  DC    AL4(0)        ADDR OF BEGINNING OF SETAB                 25290000
SESTOP   DC    F'0'          IF SELECTIVE OR EXCLUSIVE COPY, THIS IS    25380000
*                            THE ADDRESS (+1) OF THE END OF THE SETAB.  25470000
*                            IF FULL COPY, ADDR (+1) OF END OF INDDTAB. 25560000
ADNNPTRT DS    AL4           ADDR OF NEWNAME POINTER TABLE              25650000
NNTABAD  DC    F'0'               ADDR OF CURRENT NNPTRTAB ENTRY + 4    25740000
LOCOR    DC    F'0'          ADDR OF LOWEST CURRENTLY AVAILABLE         25830000
*                            ''FREE'' CORE BYTE                         25920000
SVLO     DC    F'0'               AREA FOR RE-INITIALIZING 'LOCOR'      26010000
HICOR    DC    F'0'          ADDR OF HIGHEST CURRENTLY AVAILABLE        26100000
*                            ''FREE'' CORE BYTE (+1)                    26190000
SVHI     DC    F'0'               ADDR OF HIGHEST ACQUIRED CORE (+1)    26280000
BUMP     DS    AL4           ADDR WHERE 'NEXT' ENTRY IN CTLTAB SHOULD   26370000
*                            BE PLACED                                  26460000
CTAD     DS    AL4           ADDR OF CONTROL TABLE - IF SELECTIVE COPY, 26550000
*                            THIS WILL BE SAME AS SEBEGIN.              26640000
TABAD    DS    AL4           SET TO ADDR OF NEXT CTLTAB ENTRY BY IEBMGI 26730000
ENCT     DC    HL2'0'        COUNT OF NBR OF ENTRIES IN CTLTAB (TOTAL)  26820000
*              IF THIS IS A SELECTIVE COPY, THIS COUNT WILL BE INI-     26910000
*              TIALIZED TO THE NUMBER OF ENTRIES IN SETAB.              27000000
COUNT    DC    HL2'0'        COUNT OF NBR OF ENTRIES IN SETAB IF SEL OR 27090000
*                            EXCL COPY, OR ZERO IF FULL COPY.           27180000
INDDCT   DC    AL2(0)        COUNT OF NO. INDD'S IN CURRENT STEP        27270000
NNCT1    DC    AL2(0)        NBR OF NEWNAMES SPECIFIED IN CURRENT SE-   27360000
*                            LECTIVE COPY STEP (IF NOT SEL CPY, = 0)    27450000
UFCT     DC    HL2'0'        COUNT OF NBR OF SELECTED MEMBERS YET TO BE 27540000
*                            FOUND ON ANY INPUT D.S. IN CURR INDD GROUP 27630000
DIRBCNT  DC    HL2'0'        MAX NBR BLOCKS WHICH OUT DIR CAN CONTAIN   27720000
NDBTR    DC    X'00'    COUNT OF MAX NUMBER OF DIR BLOCKS        A36049 27750000
*                      PER TRACK ALLOCATED ON THE OUTPUT DS      A36049 27780000
DBCNT    DC    H'0'          COUNT OF ACTUAL NUMBER OF BLOCKS MERGED    27810000
*                            TO THE OUTPUT DATA SET DIRECTORY           27900000
TRBALBUF DC    H'0'          AREA FOR USE IN CALCULATING TRACK BALANCE  27990000
         EJECT                                                          28080000
ZROS     DC    F'0'          CONSTANT OF ZEROES                         28170000
         DS    0D                                                       28260000
DBKEY    DC    DL8'0'        KEY FROM CURR DIR. BLOCK IN BFR            28350000
OUTDAD1  DC    DL8'0'        DASD ADDR WHERE TO GET 1ST UN-RETAINED     28440000
*                            OUTPUT DIRECTORY BLOCK.  THIS ADDR IS ONLY 28530000
*                            VALID WHEN 'ODIC' BIT IS ON IN FLG6        28620000
OUTNAME  DC    CL8' '        NAME OF CURRENT OUTPUT DD                  28710000
         SPACE 2                                                        28800000
CCIMAGE  DS    10D                     SCAN CONTROL CARD BUFFER         28890000
         SPACE 2                                                        28980000
WKA1     DC    10F'0'        VOLATILE WORK AREA FOR GENERAL USE         29070000
*                                                                       29160000
*****   PLEASE NOTE---    IEBSCN IS NOT THE ONLY MODULE WHICH USES      29250000
**                WKA1 FOR TEMPORARY WORK SPACE.                        29340000
*                 HOWEVER, THE FOLLOWING 4 EQUATES ARE USED ONLY BY     29430000
*                 IEBSCN -                                              29520000
*                                                                       29610000
SARG     EQU   WKA1          TEMPORARY WORK AREA USED BY IEBSCN (SCAN)  29700000
*                            TO HOLD SEARCH ARGUMENT 8 BYTES LONG       29790000
SAVEPAPR EQU   WKA1+8        TEMPORARY WORK AREA USED BY IEBSCN (SCAN)  29880000
*                            TO HOLD PARTIAL PARAMETERS IF CONTROL CARD 29970000
*                            IS CONTINUED, 8 BYTES LONG.                30060000
LEFTPCNT EQU   WKA1+16       TEMPORARY WORK AREA USED BY IEBSCN (SCAN)  30150000
*                            TO HOLD COUNT OF LEFT PARENTHESIS SCANNED. 30240000
RGHTPCNT EQU   WKA1+18       TEMPORARY WORK AREA USED BY IEBSCN (SCAN)  30330000
*                            TO HOLD COUNT OF RIGHT PARENTHESIS SCANNED 30420000