         PRINT OFF                                                      00040007
         MACRO                                                          00040407
&NAME    BNGHJN &LABEL,&HJN                                             00040807
         LCLC  &HJA,&HJB                                                00041207
&HJA     SETC  '&SYSPARM'(1,4)                                          00041607
&HJB     SETC  '&SYSPARM'(5,4)                                          00042007
         AIF   ('&LABEL' EQ '').NOBRNCH                                 00042407
         B     &LABEL .                 BR AROUND CONSTANTS             00042807
         SPACE 2                                                        00043207
.NOBRNCH ANOP                                                           00043607
         AIF   ('&NAME' EQ '').NOLABEL                                  00044007
         DC    C'&NAME' .              MODULE IDENTIFIER                00044407
.NOLABEL ANOP                                                           00044807
         DC    X'&HJA' .                DATE OF MODIFICATION            00045207
         AIF   ('&HJN' NE 'HJN').DATE                                   00045607
         DC    X'&HJB' .                HJN OF MODIFICATION             00046007
.DATE    ANOP                                                           00046407
         AIF   ('&LABEL' EQ '').NOLBL                                   00046807
         SPACE 2                                                        00047207
&LABEL   DS    0H                                                       00047607
.NOLBL   ANOP                                                           00048007
         MEND                                                           00048407
         PRINT ON                                                       00048807
*********************************************************************** 00049207
*                                                                     * 00080068
* MODULE NAME = BNGC3270                                              * 00120068
*                                                                     * 00160068
* DESCRIPTIVE NAME = CICS DEMF 3270 DISPLAY MODULE                    * 00200068
*                                                                     * 00240068
* COPYRIGHT = NONE                                                    * 00280068
*                                                                     * 00320068
* STATUS = RELEASE 1, LEVEL 1                                         * 00360068
*                                                                     * 00400007
* FUNCTION = 1) RECEIVES CONTROL FROM BNGCDISP;                       * 00440068
*            2) HANDLES 3270 DISPLAY TERMINAL ERROR INFORMATION       * 00480068
*               REQUEST AND BITS PROMPTER REQUEST;                    * 00520068
*            3) ACCESSES SYS1.DEMFLOG DATA FILE AND COLLECTS THE      * 00560068
*               REQUESTED 3270 ERROR INFORMATION FROM IT;             * 00600068
*            4) FORMS OUTPUT MESSAGE WITH DISPLAY FORMAT AND WRITES   * 00640068
*               IT TO THE 3270 DISPLAY TERMINAL; (ERR INFO AND SOME   * 00680068
*               OF DISPLAY MESSAGES)                                  * 00720068
*            5) RETURNS CONTROL TO CICS.                                00760068
*                                                                     * 00800068
* NOTES = NONE                                                        * 00840068
*                                                                     * 00880068
*    DEPENDENCIES =                                                   * 00920068
*                                                                     * 00960068
*    THE FOLLOWING ARE CICS TABLES/CONTROL BLOCKS AND THEIR LABELS    * 01000068
*    USED BY DEMF CICS MODULES (BNGCDISP,BNGC3270,BNGCLOCL,BNGCRMOT   * 01040068
*    BNGCMENU) :                                                      * 01080068
*                                                                     * 01120068
*    CICS TABLE AND                                                   * 01160068
*    CONTROL BLOCKS                  LABELS USED                      * 01200068
*    ----------------------          -----------                      * 01240068
*                                                                     * 01280068
*    COMMON SYSTEM AREA              CSATCTBA                         * 01320068
*    (CSA)                                                            * 01360068
*                                                                     * 01400068
*    TERMINAL CONTROL TABLE          TCTTEDA                          * 01440068
*    TERMINAL ENTRY (TCTTE)          TCTTETM                          * 01480068
*                                    TCTTELT                          * 01520068
*                                    TCTTETI                          * 01560068
*                                    TCTTECLT                         * 01600068
*                                    TCTTETEL                         * 01640068
*                                    TCTTETT                          * 01680068
*                                    TCTTEGU                          * 01720068
*                                    TCTTETA                          * 01760068
*                                                                     * 01800068
*    TERMINAL CONTROL TABLE          TCTLELF                          * 01840068
*    LINE ENTRY (TCTLE)              TCTLEFAA                         * 01880068
*                                    TCTLEPI                          * 01920068
*                                    TCTLEMFP                         * 01960068
*                                    TCTLEPA                          * 02000068
*                                    TCTLEDCB                         * 02040068
*                                    TCTLERLN                         * 02080068
*                                                                     * 02120068
*    TERMINAL INPUT/OUTPUT AREA      TIOADBA                          * 02160068
*    (TIOA)                          TIOATDL                          * 02200068
*                                                                     * 02240068
*    TASK CONTROL AREA               TCAFCAAA                         * 02280068
*    (TCA)                           TCAFCAA                          * 02320068
*                                    TCAPCPI                          * 02360068
*                                    TCASCSA                          * 02400068
*                                                                     * 02440068
*    FILE INPUT/OUTPUT AREA          FIOADBA                          * 02480068
*    (FIOA)                                                           * 02520068
*                                                                     * 02560068
*    RESTRICTIONS = NONE                                              * 02600068
*                                                                     * 02640068
*    REGISTER CONVENTIONS = R12 ADDRESS OF TCA                        * 02680068
*                           R13 ADDRESS OF CSA                        * 02720068
*                                                                     * 02760068
*    PATCH LABEL = PATCH                                       @OX21950 02800007
*                                                                     * 02840068
* MODULE TYPE = COCS DISPLAY                                          * 02880068
*                                                                     * 02920068
*    PROCESSOR = ASSEMBLER H                                          * 02960068
*                                                                     * 03000068
*    MODULE SIZE = 6976 DECIMAL BYTES                                 * 03040068
*                                                                     * 03080068
*    ATTRIBUTES = QUASI-REENTRANT                                     * 03120068
*                                                                     * 03160068
* ENTRY POINT = BNGC3270                                              * 03200068
*                                                                     * 03240068
*    PURPOSE = SEE FUNCTION                                           * 03280068
*                                                                     * 03320068
*    LINKAGE = R1  LOADED WITH THE PARAM LIST POINTER                 * 03360068
*              R14 LOADED WITH THE RETURN ADDR (USED BY SUBROUTINE)   * 03400068
*              R15 LOADED WITH ENTRY POINT                            * 03440068
*                                                                     * 03480068
* INPUT = PARAM LIST ITEMS USED ARE : INPUT TIOA AT BEGINNING OF PGM  * 03520068
*                                                                     * 03560068
* OUTPUT = PARAM LIST ITEMS USED ARE : OUTPUT TIOA AT LABEL - GETTIOA * 03600068
*                                                                     * 03640068
* EXIT-NORMAL = REGISTER 15 RETURN CODE RETURNED TO CALLER :          * 03680068
*               00 - OPERATION PERFORMED AS REQUESTED                 * 03720068
*                                                                     * 03760068
* EXIT-ERROR  = NONE                                                  * 03800068
*                                                                     * 03840068
* EXTERNAL REFERENCE = NONE                                           * 03880068
*                                                                     * 03920068
*    ROUTINES = LOCATE ROUTINE                                        * 03960068
*               GETTIOA ROUTINE (GET TERMINAL OUTPUT AREA)            * 04000068
*               BUOBR ROUTINE (BLOW-UP OBR ROUTINE)                   * 04040068
*               BUMDR ROUTINE (BLOW-UP MDR ROUTINE)                   * 04080068
*                                                                     * 04120068
*    DATA AREAS =  TWA (300 BYTES)                                    * 04160068
*                                                                     * 04200068
*    CONTROL BLOCK = DFHCSADS, DFHTCTLE, DFHTCTTE, DFHTCADS,          * 04240068
*                    DFHTIOA, DFHFIOA                                 * 04280068
*                                                                     * 04320068
* TABLES = CALENDAR - CONVERT JULIAN DATE TO GREGORIAN DATE TABLE     * 04360068
*          LEAPTBL  - LEAP YEAR CALCULATION TABLE                     * 04400068
*          CCWTABL  - CONVERT 270X COMMAND CODE INTO ENGLISH          * 04440068
*          CSWTABL  - CONVERT LOCAL 327X STATUS OR 270X LINE STATUS   * 04480068
*                     INTO ENGLISH                                    * 04520068
*          SENSTABL - CONVERT 270X LINE SENSE CODE INTO ENGLISH       * 04560068
*          STATSTBL - CONVERT REMOTE 327X STATUS CODE INTO ENGLISH    * 04600068
*          SENS3272 - CONVERT LOCAL 327X SENSE CODE INTO ENGLISH      * 04640068
*          CCW3272  - CONVERT LOCAL 327X COMMAND CODE INTO ENGLISH    * 04680068
*          TPOPTBL  - CONVERT BTAM TP OP CODE INTO ENGLISH            * 04720068
*          CICSPTOP - CONVERT TCAM TP OP CODE INTO ENGLISH            * 04760068
*          HXTOEB   - HEX CHARS TO EBCDIC CHARS TABLE                 * 04800068
*          EBTOHX   - EBCDIC CHARS TO HEX CHARS TABLE                 * 04840068
*                                                                     * 04880068
* MACROS = DCBD, DFHPC, DFHSC, DFHTC, DFHPC                           * 04920068
*                                                                     * 04960068
* CHANGE ACTIVITIES AS FOLLOWS:                                       * 05000068
* CHANGE 01  11/15/77  PROLOGUE ADDED                                 * 05000107
* CHANGE 02  02/27/78  BNGHJN MACRO ADDED                             * 05000207
*A110800,246000                                                @OZ30480 05000307
*A192000,374800,414000                                         @OZ31885 05000407
*C384000-384800                                                @OX21950 05000507
*A472800                                                       @OX21950 05000607
*                                                                     * 05080068
*********************************************************************** 05120068
BNGC3270 TITLE 'DISPLAY 3270 MDR AND OBR ENTRIES'                       05160068
R1       EQU   1                                                        05200068
BASE1    EQU   2                   1ST PROGRAM BASE REG.                05240068
BASE2    EQU   3                   2ND PROGRAM BASE REG.                05280068
TCTTEAR  EQU   4                   TCT TERML ENTRY REG.                 05320068
TIOABAR  EQU   5                   TIOA POINTER.                        05360068
FIOABAR  EQU   6                   FIOA POINTER.                        05400068
DATAREG  EQU   7                   POINTER TO DATA IN EMF FILE BLOCK.   05440068
DATALOOP EQU   8                   LOOP REG FOR PROCESSING WITH DATAREG 05480068
OUTREG   EQU   9                   POINTER TO VARIABLE AREA IN TIOA.    05520068
OUTLOOP  EQU   10                  LOOP REG FOR PROCESSING WITH OUTREG. 05560068
LINKREG  EQU   11                  LINKAGE TO COMMON SUBROUTINES.       05600068
R15      EQU   15                                                       05640068
SBA      EQU   X'11'                                                    05680068
SF       EQU   X'1D'                                                    05720068
IC       EQU   X'13'                                                    05760068
UNA      EQU   X'40'                                                    05800068
UHA      EQU   X'C8'                                                    05840068
PNA      EQU   X'60'                                                    05880068
PDA      EQU   X'E8'                                                    05920068
PIA      EQU   X'6D'                                                    05960068
MNP      EQU   X'61'                                                    06000068
L2P1     EQU   X'C150'                                                  06040068
L3P1     EQU   X'C260'                                                  06080068
L1P1     EQU   X'4040'                                                  06120068
L5P1     EQU   X'C260'                                                  06160068
L1P36    EQU   X'40E3'                                                  06200068
L4P1     EQU   X'C3F0'                                                  06240068
L1P7     EQU   X'40C6'                                                  06280068
L3P39    EQU   X'C1F6'                                                  06320068
L2P79    EQU   X'C25E'                                                  06360068
L2P1LG   EQU   X'C150'                                                  06400068
L3P1LG   EQU   X'C260'                                                  06440068
L4P1LG   EQU   X'C3F0'                                                  06480068
L1P1SM   EQU   X'4040'                                                  06520068
L2P1SM   EQU   X'40E8'                                                  06560068
L3P1SM   EQU   X'C150'                                                  06600068
L4P1SM   EQU   X'C1F8'                                                  06640068
L6P26    EQU   X'C6E9'                                                  06680068
         PRINT OFF                                                      06720068
         COPY  DFHCSADS                                                 06760068
         COPY  DFHTCTLE                                                 06800068
         COPY  DFHTCTTE                                                 06840068
         COPY  DFHTCADS                                                 06880068
         PRINT ON                                                       06920068
PARM1    DS    D                   1ST INPUT FIELD.                     06960068
PARM2    DS    D                   2ND INPUT FIELD.                     07000068
PARM3    DS    D                   3RD INPUT FIELD.                     07040068
PARM4    DS    D                   4TH INPUT FIELD.                     07080068
PARM5    DS    D                   5TH INPUT FIELD.                     07120068
PARM6    DS    D                   6TH INPUT FIELD.                     07160068
TWASBAS  DS    PL1                 COUNT OF SBA'S IN INPUT MSG.         07200068
TWAREL   DS    CL3                 FILE CONTROL RELATIVE BLK ADDR.      07240068
TWALINE  DS    F                   ADDR OF OUR TCTLE                    07280068
DUBLWD   DS    D                   WORK AREA.                           07320068
TWATIOA  DS    F                   SAVE INPUT ADDRESS.                  07360068
TWATCTID DS    F                   SAVE TERML ID.                       07400068
TWASLOT  DS    F                   SLOT COUNTER.                        07440068
SAVE14   DS    F                   SAVE AREA.                           07480068
TWAOUT   DS    F                   SAVE OUTPUT HDR ADDR                 07520068
LINESZ   DS    H                   LINE SIZE (3277 MOD 1 OR MOD 2)      07560068
LINELOOP DS    H                   NBR LINE ITEMS PER LINESZ.           07600068
OUTSWCH  DS    C                                                        07640068
HXLINLIB DS    0CL6                LINE ADDRESS INCLUDING               07680068
         DS    C                                                        07720068
HEXLINE  DS    CL2                      VTAM LIB ADDR                   07760068
HEXLIB   DS    CL3                      IN HEX FORMAT.                  07800068
HEXCTRL  DS    C                   CTRL UNIT POLL CHAR.                 07840068
HEXTERM  DS    C                   TERML POLL CHAR.                     07880068
NEWFIRST DS    CL5                 SAVE AREA FOR OLD BLK & SLOT NBR.    07920068
NEWPREV  DS    CL5                 SAVE AREA FOR OLD BLK & SLOT NBR.    07960068
SAVETERM DS    CL8                 TERMINAL SAVE AREA FOR 'NO ERR' MSG  08000068
SAVECU   DS    CL8                 CTRL UNIT SAVE AREA FOR 'NO ERR' MSG 08040068
SAVELINE DS    CL8                 LINE SAVE AREA FOR 'NO ERR' MSG      08080068
SAVEID   DS    CL20                CICS SYMBOLIC ID FOR 'NO ERR' MSG    08120068
BITFIRST DS    CL5                 FIRST BBBSS                          08160068
BITLAST  DS    CL5                 SECOND BBBSS                         08200068
BITPREV  DS    CL5                 THIRD BBBSS                          08240068
DATDATE  DS    CL4                 DATE OF ERROR - 00YYDDDF             08280068
DATTIME  DS    CL4                 TIME OF ERROR - HHMMSSHH             08320068
DATASLOT DSECT                                                          08360068
         USING *,DATAREG                                                08400068
DATALTH  DS    C                   LTH OF THIS SLOT                     08440068
LINEID   DS    CL6                 LINE AND LIB ADDR                    08480068
ENTRYTYP DS    C                   ENTRY TYPE - MDR OR OBR              08520068
         DS    CL3                                                      08560068
MDRTYPE  DS    C                   TYPE HDWE - 03 EQUALS 3270           08600068
         DS    CL3                                                      08640068
DATE     DS    CL4                 DATE OF ERROR - 00YY0DDF             08680068
TIME     DS    CL4                 TIME OF ERROR - HHMMSSHH             08720068
         DS    CL8                                                      08760068
MDRCUA   DS    CL2                 MDR CHAN & UNIT ADDR                 08800068
MDRCTRL  DS    C                   MDR CTRL UNIT POLL ADDR              08840068
MDRTERM  DS    C                   MDR TERMIL POLL ADDR                 08880068
MDRSTATS DS    CL2                 REMOTE 3270 STATUS                   08920068
         DS    CL2                                                      08960068
OBRCCW   DS    CL8                 LAST CCW EXECUTED                    09000068
OBRCSW   DS    CL8                 CHANNEL STATUS WORD                  09040068
         DS    CL6                                                      09080068
OBRUCB   DS    C                                                        09120068
         DS    CL3                                                      09160068
OBRCUA   DS    CL2                 OBR CHAN & UNIT ADDR                 09200068
OBRCTRL  DS    C                                                        09240068
OBRTERM  DS    C                                                        09280068
         DS    CL12                                                     09320068
OBRSENSE DS    CL2                 OBR SENSE BYTES                      09360068
         ORG   DATALTH                                                  09400068
CTRLPORT DS    CL6                 PORT & LIB ADDRESS                   09440068
         DS    CL4                                                      09480068
CTRLFRST DS    CL3                 REL BLK ADDR 1ST BLK IN CHAIN.       09520068
         DS    CL3                                                      09560068
SLOTLTH  EQU   *-CTRLPORT                                               09600068
         COPY  DFHTIOA                                                  09640068
SBA1     DS    CL3                 1ST SBA POSITION.                    09680068
CODE     DS    CL4                 TRANS CODE.                          09720068
SBA2     DS    CL3                 2ND SBA                              09760068
PGRM     DS    CL4                 PROGRAM NAME.                        09800068
SBA3     DS    CL3                 3RD SBA.                             09840068
FLP      DS    CL15                FIRST/LAST/PREVIOUS IF BLOWUP RQST.  09880068
SBA4     DS    CL3                 4TH SBA.                             09920068
BUX      DS    CL4                 X FOR BLOWUP REQUEST.                09960068
TIOITEM  DS    CL5                 ITEM ADDRESS TO BLOWUP.              10000068
         ORG   FLP                 START OF BBBSS AREAS                 10040068
         DS    C                   FOR FORWARD AND BACKWARD REQUST      10080068
         DS    CL3                 4TH SBA FOR BBBSS                    10120068
TIOFIRST DS    CL5                 FIRST BBBSS AREA                     10160068
TIOLAST  DS    CL5                 LAST BBBSS AREA                      10200068
TIOPREV  DS    CL5                 PREVIOUS BBBSS AREA                  10240068
         COPY  DFHFIOA                                                  10280068
CTRLLAST DS    F                   LAST USED ADDR IN DATASET            10320068
CTRLTOTL DS    F                   TOTAL BLOCKS IN DATASET              10360068
CTRLBACK DS    F                   BACKWARD PTR IN CTRL BLK CHAIN       10400068
CTRLFWD  DS    F                   FORWARD PTR IN CTRL BLK CHAIN        10440068
CTRLENTS DS    C                   NBR ENTRIES IN THIS CTRL BLK         10480068
         DS    CL15                FOR FUTURE USE                       10520068
CTRLSLT1 DS    0C                  START OF CTRL SLOT NBR ONE.          10560068
         ORG   FIOADBA                                                  10600068
DATAPORT DS    CL6                 PORT & LIB ADDR                      10640068
DATATIME DS    CL4                 TIME BLOCK CREATED                   10680068
DATADATE DS    CL4                 DATE BLOCK CREATED                   10720068
DATAFWD  DS    CL3                 FORWARD CHAIN ADDR                   10760068
DATABACK DS    CL3                 BACKWAD CHAIN ADDR                   10800068
BLKLTH   DS    CL2                 NBR BYTES USED IN THIS BLOCK         10840068
         DS    CL10                                                     10880068
DATASLT1 DS    0C                  START OF 1ST DATA SLOT               10920068
BNGC3270 CSECT                                                          10960068
         BALR  BASE1,0                                                  11040068
         USING *,BASE1,BASE2                                            11080068
BNGC3270 BNGHJN SKIPID                                         @OZ30480 11100007
         LA    BASE2,2048(BASE1)   SETUP PROGRAM BASE REGS.             11120068
         LA    BASE2,2048(BASE2)                                        11160068
         L     TCTTEAR,TCAFCAAA    POINT TO TCT TERML ENTRY.            11200068
         LA    TCTTEAR,0(TCTTEAR)  CLEAR HIGH ORDER BYTE FROM ADDR      11240068
         L     TIOABAR,TCTTEDA     POINT TO TIOA INPUT AREA.            11280068
A005     CP    TWASBAS,=P'2'       WERE LESS THAN 2 FIELDS INPUT?       11320068
         BNL   J010                NO. GO EXAMINE INPUT FURTHER.        11360068
A010     XC    TWAREL,TWAREL       YES. THIS IS A NEW RECAP REQUEST.    11400068
         CLC   PARM3(3),=C'ALL'    IF PARM 3 IS ONE OF THE DEMF         11440068
         BE    A140                DISPLAY CODES, THIS INPUT WAS FROM   11480068
         CLC   PARM3(4),=C'CTRL'          FORMATTED SCREEN.             11520068
         BE    A140                ZERO IT OUT AND TRY AGAIN.           11560068
         CLC   PARM3(4),=C'LINE'                                        11600068
         BE    A140                                                     11640068
         CLC   PARM3(4),=C'3270'                                        11680068
         BE    A140                                                     11720068
         CLC   PARM4(3),=C'ALL'                                         11760068
         BE    A130                                                     11800068
         CLC   PARM4(4),=C'CTRL'                                        11840068
         BE    A130                                                     11880068
         CLC   PARM4(4),=C'LINE'                                        11920068
         BE    A130                                                     11960068
         CLC   PARM4(4),=C'3270'                                        12000068
         BE    A130                                                     12040068
         CLC   PARM5(3),=C'ALL'                                         12080068
         BE    A120                                                     12120068
         CLC   PARM5(4),=C'CTRL'                                        12160068
         BE    A120                                                     12200068
         CLC   PARM5(4),=C'LINE'                                        12240068
         BE    A120                                                     12280068
         CLC   PARM5(4),=C'3270'                                        12320068
         BE    A120                                                     12360068
         OC    PARM3,PARM3         WAS LINE ID INPUT?                   12400068
         BNZ   B140                YES. GO SEARCH CTRL BLK FOR IT.      12440068
         TM    TCTEAMIB,TCTEVTAM    IS THIS FROM A VTAM TERM?           12480068
         BO    A110                 YES. CAN'T HONOR REQUEST.           12520068
         L     14,CSATCTBA         POINT TO TCT PREFIX.                 12560068
         L     14,4(14)            POINT TO BTAM ADCON LIST.            12600068
A030     CLC   0(4,14),=X'FFFFFFFF'  ANY MORE LINES TO LOOK AT?         12640068
         BE    S190                NO. SEND 'INVALID INPUT' MSG.        12680068
         L     1,0(14)             POINT TO A LINE.                     12720068
         ST    1,TWALINE           STORE ADDR IN CASE THIS IS IT.       12760068
         TM    TCTLELF,TCTLEFAA    IS THIS A POOLED LINE?               12800068
         BZ    A090                NO.                                  12840068
         TM    TCTLEPI,TCTLEMFP    YES. IS IT 1ST IN POOL?              12880068
         BZ    A150                NO. SKIP IT - DOESN'T POINT TO DCB.  12920068
A090     L     15,TCTLEPA          YES. POINT TO 1ST TERML.             12960068
A100     CLC   TCTTETI,0(15)       IS THIS OUR TERML?                   13000068
         BE    A170                YES. HAVE LOCATED ITS LINE ENTRY.    13040068
         TM    (TCTTELT-TCTTETI)(15),TCTTECLT  LAST TERML ON LINE?      13080068
         BO    A150                YES. GO LOOK AT NEXT LINE.           13120068
         AH    15,(TCTTETEL-TCTTETI)(15)  BUMP TO NEXT TERML.           13160068
         B     A100                                                     13200068
A110     MVC   TIOATDL(VTAMLTH),VTAMMSG                                 13240068
         MVC   TIOATDL+(VTAMID-VTAMMSG)(4),TCTTETI                      13280068
         B     D170                                                     13320068
VTAMMSG  DC    AL2(VTAMLTH-4),X'0000'                                   13360068
         DC    CL10'BNG010I C '                                         13400068
VTAMID   DC    CL8' ',CL21' IS A VTAM TERMINAL. '                       13440068
         DC    CL39'FOR INQUIRY,GIVE DEMF HARDWARE ADDRESS.'            13480068