         PRINT OFF                                                      00050007
         MACRO                                                          00050407
&NAME    BNGHJN &LABEL,&HJN                                             00050807
         LCLC  &HJA,&HJB                                                00051207
&HJA     SETC  '&SYSPARM'(1,4)                                          00051607
&HJB     SETC  '&SYSPARM'(5,4)                                          00052007
         AIF   ('&LABEL' EQ '').NOBRNCH                                 00052407
         B     &LABEL .                 BR AROUND CONSTANTS             00052807
         SPACE 2                                                        00053207
.NOBRNCH ANOP                                                           00053607
         AIF   ('&NAME' EQ '').NOLABEL                                  00054007
         DC    C'&NAME' .              MODULE IDENTIFIER                00054407
.NOLABEL ANOP                                                           00054807
         DC    X'&HJA' .                DATE OF MODIFICATION            00055207
         AIF   ('&HJN' NE 'HJN').DATE                                   00055607
         DC    X'&HJB' .                HJN OF MODIFICATION             00056007
.DATE    ANOP                                                           00056407
         AIF   ('&LABEL' EQ '').NOLBL                                   00056807
         SPACE 2                                                        00057207
&LABEL   DS    0H                                                       00057607
.NOLBL   ANOP                                                           00058007
         MEND                                                           00058407
         PRINT ON                                                       00058807
*********************************************************************** 00059207
*                                                                     * 00100000
* MODULE NAME = BNGCDISP                                              * 00150000
*                                                                     * 00200000
* DESCRIPTIVE NAME = CICS DEMF DISPLAY CONTROL MODULE                 * 00250000
*                                                                     * 00300000
* COPYRIGHT = NONE                                                    * 00350000
*                                                                     * 00400000
* STATUS = RELEASE 1, LEVEL 1                                         * 00450000
*                                                                     * 00500000
* FUNCTION = 1) RECEIVES CONTROL FROM CICS;                           * 00550000
*            2) EDITS THE INPUT INTO 6 PARM FIELDS WITH LEFT JUSTIFY; * 00600000
*            3) DOES SYNTAX CHECK ON DEMF COMMANDS AND PARAMETERS;    * 00650000
*            4) DETERMINES WHETHER THE REQUEST IS FOR MENU,REMOTE,    * 00700000
*               LOCAL OR 3270 SCREEN ERROR DISPLAY AND PASSES CONTROL * 00750000
*               TO BNGTMENU,BNGTRMOT,BNGTLOCL OR BNGT3270 SEGMENT     * 00800000
*               ACCORDINGLY WITH PARAMETERS;                          * 00850000
*            5) HANDLES ALL,LINE AND CTRL ERROR DISPLAY REQUEST AND   * 00900000
*               WRITES ITS ERROR INFORMATION TO THE 3270 DISPLAY      * 00950000
*               TERMINAL AND ISSUES SOME OF THE DISPLAY MESSAGES;     * 01000000
*            6) ACCESSES SYS1.DEMFLOG DATA FILE FOR ALL,LINE AND CTRL * 01050000
*               ERROR DISPLAY REQUEST;                                * 01100000
*            7) RETURNS CONTROL TO CICS.                              * 01150000
*                                                                     * 01200000
* NOTES = NONE                                                        * 01250000
*                                                                     * 01300000
*    DEPENDENCIES =                                                   * 01350000
*                                                                     * 01400000
*    THE FOLLOWING ARE CICS TABLES/CONTROL BLOCKS AND THEIR LABELS    * 01450000
*    USED BY DEMF CICS MODULES (BNGCDISP,BNGC3270,BNGCLOCL,BNGCRMOT   * 01500000
*    BNGCMENU) :                                                      * 01550000
*                                                                     * 01600000
*    CICS TABLE AND                                                   * 01650000
*    CONTROL BLOCKS                  LABELS USED                      * 01700000
*    ----------------------          -----------                      * 01750000
*                                                                     * 01800000
*    COMMON SYSTEM AREA              CSATCTBA                         * 01850000
*    (CSA)                                                            * 01900000
*                                                                     * 01950000
*    TERMINAL CONTROL TABLE          TCTTEDA                          * 02000000
*    TERMINAL ENTRY (TCTTE)          TCTTETM                          * 02050000
*                                    TCTTELT                          * 02100000
*                                    TCTTETI                          * 02150000
*                                    TCTTECLT                         * 02200000
*                                    TCTTETEL                         * 02250000
*                                    TCTTETT                          * 02300000
*                                    TCTTEGU                          * 02350000
*                                    TCTTETA                          * 02400000
*                                                                     * 02450000
*    TERMINAL CONTROL TABLE          TCTLELF                          * 02500000
*    LINE ENTRY (TCTLE)              TCTLEFAA                         * 02550000
*                                    TCTLEPI                          * 02600000
*                                    TCTLEMFP                         * 02650000
*                                    TCTLEPA                          * 02700000
*                                    TCTLEDCB                         * 02750000
*                                    TCTLERLN                         * 02800000
*                                                                     * 02850000
*    TERMINAL INPUT/OUTPUT AREA      TIOADBA                          * 02900000
*    (TIOA)                          TIOATDL                          * 02950000
*                                                                     * 03000000
*    TASK CONTROL AREA               TCAFCAAA                         * 03050000
*    (TCA)                           TCAFCAA                          * 03100000
*                                    TCAPCPI                          * 03150000
*                                    TCASCSA                          * 03200000
*                                                                     * 03250000
*    FILE INPUT/OUTPUT AREA          FIOADBA                          * 03300000
*    (FIOA)                                                           * 03350000
*                                                                     * 03400000
*    RESTRICTIONS = NONE                                              * 03450000
*                                                                     * 03500000
*    REGISTER CONVENTIONS = R12 ADDRESS OF TCA                        * 03550000
*                           R13 ADDRESS OF CSA                        * 03600000
*                                                                     * 03650000
*    PATCH LABEL = NONE                                               * 03700000
*    PATCH LABEL = PATCH                                       @OX21950 03720007
*                                                                     * 03750000
* MODULE TYPE =  CICS DISPLAY CONTROL                                 * 03800000
*                                                                     * 03850000
*    PROCESSOR = ASSEMBLER H                                          * 03900000
*                                                                     * 03950000
*    MODULE SIZE = 5632 DECIMAL BYTES                                 * 04000000
*                                                                     * 04050000
*    ATTRIBUTES = QUASI-REENTRANT                                     * 04100000
*                                                                     * 04150000
* ENTRY POINT = BNGCDISP                                              * 04200000
*                                                                     * 04250000
*    PURPOSE = SEE FUNCTION                                           * 04300000
*                                                                     * 04350000
*    LINKAGE = R12 LOADED WITH THE ADDRESS OF TCA                     * 04400000
*              R13 LOADED WITH THE ADDRESS OF CSA                     * 04450000
*              R14 LOADED WITH THE RETURN ADDR (USED BY SUBROUTINE)   * 04500000
*              R15 LOADED WITH ENTRY POINT                            * 04550000
*                                                                     * 04600000
* INPUT =  INPUT TIOA                                                 * 04650000
*                                                                     * 04700000
* OUTPUT = OUTPUT TIOA                                                * 04750000
*                                                                     * 04800000
* EXIT-NORMAL = REGISTER 15 RETURN CODE RETURNED TO CALLER :          * 04850000
*               00 - OPERATION PERFORMED AS REQUESTED                 * 04900000
*                                                                     * 04950000
* EXIT-ERROR  = NONE                                                  * 05000000
*                                                                     * 05050000
* EXTERNAL REFERENCE = BNGCLOCL,BNGCRMOT,BNGCMENU AND BNGC3270        * 05100000
*                                                                     * 05150000
*    ROUTINES = LOCATE ROUTINE                                        * 05200000
*               MOD1SCAN ROUTINE                                      * 05250000
*               MOD1 TABLE BUILD (AT LABEL S215) ROUTINE              * 05300000
*                                                                     * 05350000
*    DATA AREAS =  TWA (300 BYTES)                                    * 05400000
*                                                                     * 05450000
*    CONTROL BLOCK = DFHCSADS, DFHTCTTE, DFHTCTLE, DFHTCADS,          * 05500000
*                    DFHTIOA, DFHFIOA                                 * 05550000
*                                                                     * 05600000
* TABLES = TABLE    - FUNCTION/COMPANION TABLE                        * 05650000
*          MOD1TAB  - 3277 MODEL 1 TABLE                              * 05700000
*          HXTOEB   - HEX CHARS TO EBCDIC CHARS TABLE                 * 05750000
*          EBTOHX   - EBCDIC CHARS TO HEX CHARS TABLE                 * 05800000
*          LOTOUP   - LOWER TO UPPER CASE CHARS TABLE                 * 05850000
*                                                                     * 05900000
* MACROS = DCBD, DFHFC, DFHSC, DFHTC, DFHPC                           * 05950000
*                                                                     * 06000000
* CHANGE ACTIVITIES AS FOLLOWS:                                       * 06050000
* CHANGE 01  11/15/77  PROLOGUE ADDED                                 * 06050107
* CHANGE 02  02/22/78  BNGHJN MACRO ADDED                             * 06050207
*A139000                                                       @OZ29900 06050307
*C521500                                                       @OZ30480 06050407
*A489500                                                       @OZ31882 06050507
*D454000-455000                                                @OZ31878 06050607
*C456500-457000,551500-552000,601000-602000,603500-607000      @OZ31878 06050707
*C608500-611000                                                @OZ31878 06050807
*A412000,654500,684000                                         @OZ31885 06050907
*C037000,360500-361500                                         @OX21950 06051007
*A728500                                                       @OX21950 06051107
*                                                                     * 06150000
*********************************************************************** 06200000
BNGCDISP TITLE 'DISPLAY AUDITS INPUT AND DISPLAYS ALL LINES,LINE, CTRL' 06250000
         PRINT OFF                                                      06300000
         COPY  DFHCSADS                                                 06350000
         COPY  DFHTCTTE                                                 06400000
         COPY  DFHTCTLE                                                 06450000
         COPY  DFHTIOA                                                  06500000
         COPY  DFHTCADS                                                 06550000
         PRINT ON                                                       06600000
PARM1    DS    D                   1ST INPUT PARM - DEMF                06650000
PARM2    DS    D                   2ND INPUT PARM - ALL/LINE/CTRL/      06700000
*                                                    3270               06750000
PARM3    DS    D                   3RD INPUT PARM                       06800000
PARM4    DS    D                   4TH INPUT PARM                       06850000
PARM5    DS    D                   5TH INPUT PARM                       06900000
PARM6    DS    D                   6TH INPUT PARM                       06950000
SBACNT   DS    PL1                 COUNT OF SBA'S IN INPUT              07000000
RELREC   DS    CL3                 BDAM RELATIVE BLOCK ADDRESS          07050000
SVRELREC DS    CL3           SAVE AREA FOR LINE/CTRL RELATIVE BLOCK NO. 07100000
DBLWD    DS    D                   DOUBLEWORD WORK AREA                 07150000
DUBLWD   EQU   DBLWD                                                    07200000
FULLWD   DS    F                   FULLWORD WORK AREA                   07250000
TWALINE  DS    F             SAVE AREA FOR CICS SYMBOLIC LINE POINTER   07300000
*   THE TWA FROM HERE UP MUST REMAIN IN THAT ORDER TO MATCH TWALINE     07350000
*         WITH TWATCTID IN THE 3270 PROGRAM.                            07400000
LINEID   DS    XL6                 HARDWARE LINE ADDRESS                07450000
LINENAME DS    CL8           LINE NAME SAVE AREA FOR RECAP HEADER       07500000
CTRLID   DS    X                   HARDWARE CONTROL UNIT ADDRESS        07550000
CTRLNAME DS    CL8           CTRL/CLUSTER NAME WORK AREA FOR OUTPUT     07600000
TERMNAME DS    CL8                 TERML/LOGICAL UNIT NAME WORK AREA    07650000
CLUSNAME DS    CL8           CTRL/CLUSTER NAME SAVE AREA FOR RECAP HDR. 07700000
NEWPARM  DS    C                   NEW-PARM SWITCH                      07750000
CTRPARM  DS    C                   COUNTER OF CHARS STORED IN PARM(X)   07800000
SAVETIOA DS    F                   SAVE AREA FOR ORIGINAL TIOA          07850000
SAVEBBSS DS    F                   SAVE POINTER TO BLK AND SLOT         07900000
TWASLOT  DS    C                   INPUT SLOT COUNT IN HEX              07950000
WRKSLOT  DS    C                   TWASLOT WORK AREA                    08000000
*                                  DISPLACEMENTS IN TIOA                08050000
SAVERCAP DS    F                   SAVEAREA FOR POINTER TO RECAP LINE   08100000
SAVEITEM DS    F                   SAVEAREA FOR POINTER TO FIRST LINE   08150000
*                                  AND CTRL DISPLAYS                    08200000
SLOTCNT  DS    C                   COUNT OF DETAIL SLOTS READ           08250000
ITEMCNT  DS    PL2                 COUNT OF OUTPUT ITEMS IN LINE        08300000
WORKCNT  DS    PL2                 ITEM WORK COUNTER                    08350000
WORK15   DS    CL15                                                     08400000
QUITSW   DS    C             USED TO STOP EDIT OF INPUT ON 3RD SBA      08450000
*                             IF 2ND SBA = L1P7 OR L6P26  ***ALSO*** XH 08500000
*                            USED AS MOD-1 OUTPUT-FULL-SWITCH        XH 08550000
*                               00 = NOT FULL   FF = OUTPUT FULL BUT XH 08600000
*     CONTINUE SCANNING DATA BASE FOR CORRECT ERROR COUNTS           XH 08650000
*********************************************************************** 08700000
MOD1TABL DS    CL64          MAX OF 32 ENTRIES FOR MOD-1 TABLE          08750000
*                              LOCAL TERM = 2-BYTES                     08800000
*                              REMOTE CU AND TERM = 2-BYTES             08850000
TBRELREC DS    CL3           SAVE AREA FOR PAGING 'BBB'                 08900000
TBSLOT   DS    C             SAVE AREA FOR PAGING 'SS'                  08950000
TBCTRL   DS    C             SAVE AREA FOR MDR CTRL UNIT                09000000
TBLINE   DS    CL6           SAVE AREA FOR LINE ADDR OF PAGE            09050000
TBARG    DS    CL2           SAVE AREA FOR TABLE ARGUMENT               09100000
TABLECNT DS    PL2           COUNT OF ENTRIES IN TABLE                  09150000
WKTBLCNT DS    PL2           WORK AREA FOR COUNT OF TABLE ENTRIES       09200000
MOD1SW   DS    X             00 = SWT OFF    FF = SWT ON                09250000
*                            IF ON, PERFORM MOD1 TABLE SCAN             09300000
SOUTLOOP DS    F             SAVE AREA FOR OUTLOOP REGISTER             09350000
*********************************************************************** 09400000
         COPY  DFHFIOA                                                  09450000
CTRLLAST DS    F                   LAST USED ADDR IN DATASET            09500000
CTRLTOTL DS    F                   TOTAL BLOCKS IN DATASET              09550000
CTRLBACK DS    F                   BACKWARD PTR IN CTRL BLK CHAIN       09600000
CTRLFWD  DS    F                   FORWARD PTR IN CTRL BLK CHAIN        09650000
CTRLENTS DS    C                   NBR ENTRIES IN THIS CTRL BLK         09700000
         DS    CL15                FOR FUTURE USE                       09750000
CTRLSLT1 DS    0C                  START OF CTRL SLOT NBR ONE.          09800000
         ORG   FIOADBA                                                  09850000
DATAPORT DS    CL6                 PORT & LIB ADDR                      09900000
DATATIME DS    CL4                 TIME BLOCK CREATED                   09950000
DATADATE DS    CL4                 DATE BLOCK CREATED                   10000000
DATAFWD  DS    CL3                 FORWARD CHAIN ADDR                   10050000
DATABACK DS    CL3                 BACKWAD CHAIN ADDR                   10100000
BLKLTH   DS    CL2                 NBR BYTES USED IN THIS BLOCK         10150000
         DS    CL10                                                     10200000
DATASLT1 DS    0C                  START OF 1ST DATA SLOT               10250000
SLOTS    DSECT           MAP OF ENTRIES IN CONTROL BLOCK                10300000
         USING SLOTS,DATAREG                                            10350000
SLOTLINE DS    CL6                CHANNEL ADDRESS(PORT OR LIB)          10400000
SLOTNBC  DS    CL2                NUMBER OF BLOCKS IN THIS CHAIN        10450000
SLOTHITS DS    CL2                TOTAL HITS ON THIS LINE               10500000
SLOTRFB  DS    CL3                RELATIVE ADDRESS FIRST BLOCK IN CHAIN 10550000
SLOTRLB  DS    CL3                RELATIVE ADDRESS LAST BLOCK IN CHAIN  10600000
SLOTLTH  EQU   *-SLOTS                                                  10650000
         ORG   SLOTS         MAP OF MDR AND OBR IN DETAIL BLOCKS        10700000
DATALTH  DS    C                   LTH OF THIS SLOT                     10750000
LINEIDA  DS    CL6                 LINE AND LIB ADDR                    10800000
ENTRYTYP DS    C                   ENTRY TYPE - MDR OR OBR              10850000
         DS    CL3                                                      10900000
MDRTYPE  DS    C                   TYPE HDWE - 03 EQUALS 3270           10950000
         DS    CL3                                                      11000000
DATE     DS    CL4                 DATE OF ERROR - 00YY0DDF             11050000
TIME     DS    CL4                 TIME OF ERROR - HHMMSSHH             11100000
         DS    CL8                                                      11150000
MDRCUA   DS    CL2                 MDR CHAN & UNIT ADDR                 11200000
MDRCTRL  DS    C                   MDR CTRL UNIT POLL ADDR              11250000
MDRTERM  DS    C                   MDR TERMIL POLL ADDR                 11300000
MDRSTATS DS    CL2                 REMOTE 3270 STATUS                   11350000
         DS    CL2                                                      11400000
OBRCCW   DS    CL8                 LAST CCW EXECUTED                    11450000
OBRCSW   DS    CL8                 CHANNEL STATUS WORD                  11500000
         DS    CL6                                                      11550000
OBRUCB   DS    C                                                        11600000
         DS    CL3                                                      11650000
OBRCUA   DS    CL2                 OBR CHAN & UNIT ADDR                 11700000
OBRCTRL  DS    C                                                        11750000
OBRTERM  DS    C                                                        11800000
         DS    CL12                                                     11850000
OBRSENSE DS    CL2                 OBR SENSE BYTES                      11900000
*********************************************************************** 11950000
BNGCDISP CSECT                                                          12000000
SBA      EQU   X'11'         SET BUFFER ADDRESS                         12050000
SF       EQU   X'1D'         START FIELD                                12100000
IC       EQU   X'13'         INSERT CURSOR                              12150000
UNA      EQU   X'40'         UNPROTECTED,NORMAL INTENSITY, ALPHAMERIC   12200000
PNA      EQU   X'60'         PROTECTED, NORMAL INTENSITY, ALPHAMERIC    12250000
PHA      EQU   X'E8'             PROTECTED, HIGH INTENSITY, ALPHAMERIC  12300000
MNP      EQU   X'61'             PROT,MODIFIED,NORMAL                   12350000
PIA      EQU   X'6D'             PROTECTED,MODIFIED,INVISIBLE,ALPHA     12400000
L1P1     EQU   X'4040'       LINE 1, POSITION 1  BUFFER ADDRESS.        12450000
L1P7     EQU   X'40C6'       LINE 1, POSITION 7  BUFFER ADDRESS.        12500000
L1P36    EQU   X'40E3'       LINE 1, POSITION 36 BUFFER ADDRESS.        12550000
L2P1     EQU   X'C150'       LINE 2, POSITION 1  BUFFER ADDRESS.        12600000
L2P4     EQU   X'C1D3'       PAGE FWD  BUFFER ADDR FOR 3277-2           12650000
L2P44    EQU   X'C17B'       PAGE BKWD BUFFER ADDR FOR 3277-2           12700000
L3P1     EQU   X'C260'       LINE 3, POSITION 1 BUFFER ADDRESS.         12750000
L3P4     EQU   X'C1D3'       LINE 3, POSITION 4 BUFFER ADDRESS.         12800000
L4P1     EQU   X'C3F0'       LINE 4, POSITION 1  BUFFER ADDRESS.        12850000
L4P4     EQU   X'C17B'       PAGE BKWD BUFFER ADDR FOR 3277-1           12900000
L6P26    EQU   X'C6E9'       LINE 6, POSITION 26 BUFFER ADDRESS.        12950000
TCTTEAR  EQU   2             POINTS TO TCTTE                            13000000
BASE1    EQU   3             BASE REGISTER ONE = 0-4095                 13050000
BASE2    EQU   4             BASE REGISTER TWO = 4096-8191              13100000
TIOABAR  EQU   5             POINTS TO TIOA                             13150000
FIOABAR  EQU   6             POINTS TO FIOA                             13200000
PARMREG  EQU   6             POINTS TO PARM AREA                        13250000
OUTREG   EQU   7             POINTS TO DATA IN TIOA AREA                13300000
OUTLOOP  EQU   8             USED FOR LOOPING THRU DATA IN TIOA AREA    13350000
MOD1REG  EQU   8             POINTS TO MOD-1 TABLE (MOD1TABL)           13400000
DATAREG  EQU   9             POINTS TO DATA IN FIOA AREA                13450000
DATALOOP EQU   10            USED FOR LOOPING THRU DATA IN FIOA AREA    13500000
TABLEREG EQU   11            POINTS TO FUNCTION/COMPANION TABLE         13550000
R11      EQU   11            PARMLIST COUNTER WORK REGISTER FOR CTRPARM 13600000
LINKREG  EQU   11            SUBROUTINE LINKAGE                         13650000
R14      EQU   14                                                       13700000
R15      EQU   15                                                       13750000
*********************************************************************** 13800000
         BALR  BASE1,0                                                  13850000
         USING *,BASE1,BASE2                                            13900000
BNGCDISP BNGHJN GO                                             @OZ29900 13920007
         LA    BASE2,2048(BASE1)                                        13950000
         LA    BASE2,2048(BASE2)                                        14000000
         L     TCTTEAR,TCAFCAAA                                         14050000
         LA    TCTTEAR,0(TCTTEAR)                                       14100000
         L     TIOABAR,TCTTEDA                                          14150000
         ZAP   SBACNT,=P'0'        SET SBA COUNTER TO ZERO.             14200000
         TR    TIOADBA(80),LOTOUP  TRANSLATE LOWER CASE TO UPPER CASE.  14250000
         LA    DATAREG,TIOADBA     POINT TO 1ST BYTE IN TIOA.           14300000
         LR    DATALOOP,DATAREG    SETUP DATA LOOP                      14350000
         AH    DATALOOP,TIOATDL                                         14400000
         XC    PARM1(48),PARM1     ZERO OUT PARM FIELDS                 14450000
         LA    PARMREG,PARM1       POINT TO PARMS.                      14500000
         LR    14,PARMREG                                               14550000
         MVI   QUITSW,X'00'        SET QUITSW OFF.                      14600000
         MVI   NEWPARM,C'1'        TURN ON 'NEW PARM' SWITCH.           14650000
         MVI   CTRPARM,X'00'       SET CHARS COUNTER IN PARM = ZERO     14700000
A160     CLI   0(DATAREG),SBA      IS THIS BYTE AN SBA?                 14750000
         BNE   A210                NO. CHECK IT FURTHER.                14800000
         CLI   QUITSW,X'FF'            QUIT SWITCH ON?                  14850000
         BE    C10                          YES.  QUIT EDIT.            14900000
         CLC   1(2,DATAREG),=AL2(L1P7)  IS 2ND SBA = LINE 1 POSN 7?     14950000
         BE    A170                              NO. CONTINUE EDIT      15000000
         CLC   1(2,DATAREG),=AL2(L6P26) IS 2ND SBA = LINE 6 POSN 26?    15050000
         BNE   A180                              NO. CONTINUE EDIT      15100000
A170     MVI   QUITSW,X'FF'            TURN QUIT SWITCH ON              15150000
A180     AP    SBACNT,=P'1'        YES. ADD TO TO SBA COUNTER.          15200000
         LA    DATAREG,2(DATAREG)  BUMP TIOA POINTER BY 2.              15250000
         B     B80                                                      15300000
A210     CLI   0(DATAREG),C'A'     IS IT AN 'A' OR HIGHER?              15350000
         BL    B80                 NO. CHECK NEW PARM SWITCH.           15400000
         CLI   NEWPARM,C'1'        IS FIRST CHAR FOR PARM(X)?           15450000
         BNE   B10                 NO.                                  15500000
         MVI   NEWPARM,C'0'        YES. SET FIRST CHAR IN FOR PARM      15550000
         MVI   CTRPARM,X'00'       SET PARM CHAR CTR = 0                15600000
B10      IC    R11,CTRPARM         LOAD R11 = CTRPARM                   15650000
         LA    R11,1(R11)          ADD CTRPARM = CTRPARM + 1            15700000
         STC   R11,CTRPARM         STORE NEW CTR BACK CTRPARM           15750000
         CLI   CTRPARM,X'08'       IS CHAR COUNT IN PARM OVER 8 ?       15800000
         BH    B50                 YES. GO BACK LOOP WITHOUT STORING    15850000
         MVC   0(1,14),0(DATAREG)  PUT THIS BYTE IN THIS PARM           15900000
         CLI   PARM6+7,X'00'       ARE ALL PARMS USED UP?               15950000
         BNE   C10                 YES. GOTO SYNTAX CHECKING ROUTINE    16000000
         LA    14,1(14)            BUMP PARM POINTER WORKREG.           16050000
B40      LA    DATAREG,1(DATAREG)  BUMP TIOA POINTER.                   16100000
         CR    DATAREG,DATALOOP    IS THERE MORE DATA IN TIOA?          16150000
         BL    A160                YES. GO PROCESS MORE DATA.           16200000
         B     C10                 NO. GOTO SYNTAX CHECKING ROUTINE     16250000
B50      CLC   PARM2(5),=X'F3F2F7F000'  IS THIS A 3270 SCREEN INPUT ?   16300000
         BNE   B40                      NO.                             16350000
         CP    SBACNT,=P'2'        IS THIS NON-FORMATTED INPUT ?        16400000
         BH    B40                 NO.                                  16450000
         B     Z40                 YES. SEND INVALID FORMAT MSG.        16500000