         PRINT OFF                                                      00040007
         MACRO                                                          00040407
&NAME    BNGHJN &LABEL,&HJN                                             00040807
         LCLC  &HJA,&HJB                                                00041207
&HJA     SETC  '&SYSPARM'(1,4)                                          00041607
&HJB     SETC  '&SYSPARM'(5,4)                                          00042007
         AIF   ('&LABEL' EQ '').NOBRNCH                                 00042407
         B     &LABEL .                 BR AROUND CONSTANTS             00042807
         SPACE 2                                                        00043207
.NOBRNCH ANOP                                                           00043607
         AIF   ('&NAME' EQ '').NOLABEL                                  00044007
         DC    C'&NAME' .              MODULE IDENTIFIER                00044407
.NOLABEL ANOP                                                           00044807
         DC    X'&HJA' .                DATE OF MODIFICATION            00045207
         AIF   ('&HJN' NE 'HJN').DATE                                   00045607
         DC    X'&HJB' .                HJN OF MODIFICATION             00046007
.DATE    ANOP                                                           00046407
         AIF   ('&LABEL' EQ '').NOLBL                                   00046807
         SPACE 2                                                        00047207
&LABEL   DS    0H                                                       00047607
.NOLBL   ANOP                                                           00048007
         MEND                                                           00048407
         PRINT ON                                                       00048807
*********************************************************************** 00049207
*                                                                     * 00080068
* MODULE NAME = BNGI3270                                              * 00120068
*                                                                     * 00160068
* DESCRIPTIVE NAME =  IMS DEMF 3270 DISPLAY MODULE                    * 00200068
*                                                                     * 00240068
* COPYRIGHT = NONE                                                    * 00280068
*                                                                     * 00320068
* STATUS = RELEASE 1, LEVEL 1                                         * 00360068
*                                                                     * 00400068
* FUNCTION = 1) BNGI3270 IS LINKED TO BY BNGIDISP;                    * 00440068
*            2) HANDLES 3270 DISPLAY TERMINAL ERROR INFORMATION       * 00480068
*               REQUEST AND BITS PROMPTER REQUEST;                    * 00520068
*            2) LINKS TO BNGIREAD TO READ SYS1.DEMFLOG DATA FILE AND  * 00560068
*               COLLECTS THE REQUESTED 3270 ERROR INFORMATION FROM    * 00600068
*               IT;                                                   * 00640068
*            3) FORMS OUTPUT MESSAGE AND WRITES IT TO THE 3270 DISPLAY* 00680068
*               TERMINAL; (ERR INFO AND SOME OF DISPLAY MESSAGES)     * 00720068
*            4) RETURNS CONTROL TO BNGIDISP.                          * 00760068
*                                                                     * 00800068
* NOTES = NONE                                                        * 00840068
*                                                                     * 00880068
*    DEPENDENCIES = NONE                                              * 00920068
*                                                                     * 00960068
*    RESTRICTIONS = NONE                                              * 01000068
*                                                                     * 01040068
*    REGISTER CONVENTIONS :                                           * 01080068
*    --------------------                                             * 01120068
*                                                                     * 01160068
*    ALL DEMF RECORDING DISPLAY COMPONENTS USE STANDARD REGISTER      * 01200068
*    CONVENTIONS WITH THE EXCEPTION OF THE IMS DISPLAY COMPONENTS.    * 01240068
*    CERTAIN IMS MODULES USE ADDITIONAL REGISTERS AND THE LINK MACRO  * 01280068
*    FOR PASSING OR RETRIEVING DATA PARAMETER INFORMATION AND ARE     * 01320068
*    DETAILED BELOW:                                                  * 01360068
*                                                                     * 01400068
*     MODULE    REGISTER    CONTENTS.                                 * 01440068
*    --------   --------    ------------------------------------      * 01480068
*    BNGIDISP     R5        PASSES ADDRESS OF IMS PROGRAM             * 01520068
*                           COMMUNICATION BLOCK (PCB) TO              * 01560068
*                           BNGI3270, BNGIMENU, BNGILOCL, AND         * 01600068
*                           BNGIRMOT.                                 * 01640068
*                                                                     * 01680068
*                 R11       PASSES TO BNGIREAD THE ADDRESS OF A       * 01720068
*                           PARAMETER LIST CONTAINING:                * 01760068
*                                                                     * 01800068
*                          1) 4-BYTES - ADDRESS OF I/O AREA FROM      * 01840068
*                                       BNGIREAD                      * 01880068
*                                                                     * 01920068
*                          2) 3-BYTES - RELATIVE BLOCK ADDRESS TO     * 01960068
*                                       BE READ BY BNGIREAD           * 02000068
*                                                                     * 02040068
*                          3) 2-BYTES - STATUS OF READ FROM           * 02080068
*                                       BNGIREAD                      * 02120068
*                                                                     * 02160068
*                 R12      FOR BNGI3270, PASSES THE ADDRESS OF A      * 02200068
*                          COMMUNICATION AREA CONTAINING              * 02240068
*                          UP TO SIX EDITTED PARM FIELDS, SAVE        * 02280068
*                          AND WORK AREAS, AND THE INPUT MESSAGE.     * 02320068
*                                                                     * 02360068
*                          FOR BNGILOCL, BNGIRMOT, AND BNGIMENU;      * 02400068
*                          PASSES THE ADDRESS OF THE INPUT MESSAGE.   * 02440068
*                                                                     * 02480068
*    BNGIREAD    LINK TO BNGIDCBA       RETRIEVES THE ADDRESS OF THE  * 02520068
*                (ALIAS FOR BNGISIMS)   ADDRESS OF THE SYS1.DEMFLOG   * 02560068
*                                       DCB.                          * 02600068
*                                                                     * 02640068
*                 R11      RECEIVES ADDRESS OF PARAMETER LIST         * 02680068
*                          (SEE BNGIDISP R11 FOR LIST).               * 02720068
*                                                                     * 02760068
*    BNGI3270     R5      RECEIVES ADDRESS OF IMS PCB FROM BNGIDISP   * 02800068
*                                                                     * 02840068
*                 R11     PASSES TO BNGIREAD THE ADDRESS OF A         * 02880068
*                         PARAMETER LIST (SEE BNGIDISP R11 FOR LIST)  * 02920068
*                                                                     * 02960068
*                 R12     RECEIVES FROM BNGIDISP THE ADDRESS OF THE   * 03000068
*                         COMMUNICATION AREA (SEE BNGIDISP R12 FOR    * 03040068
*                         CONTENTS OF AREA).                          * 03080068
*                                                                     * 03120068
*    BNGIMENU     R5      RECEIVES ADDRESS OF IMS PCB FROM BNGIDISP   * 03160068
*                                                                     * 03200068
*                 R12     RECEIVES ADDRESS OF INPUT MESSAGE FROM      * 03240068
*                         BNGIDISP.                                   * 03280068
*                                                                     * 03320068
*    BNGILOCL     R5      RECEIVES ADDRESS OF IMS PCB FROM BNGIDISP   * 03360068
*                                                                     * 03400068
*                 R12     RECEIVES ADDRESS OF INPUT MESSAGE FROM      * 03440068
*                         BNGIDISP.                                   * 03480068
*                                                                     * 03520068
*    BNGIRMOT     R5      RECEIVES ADDRESS OF IMS PCB FROM BNGIDISP   * 03560068
*                                                                     * 03600068
*                 R12     RECEIVES ADDRESS OF INPUT MESSAGE FROM      * 03640068
*                         BNGIDISP.                                   * 03680068
*                                                                     * 03720068
*    PATCH LABEL = NONE                                               * 03760068
*                                                                     * 03800068
* MODULE TYPE = IMS DISPLAY                                           * 03840068
*                                                                     * 03880068
*    PROCESSOR = ASSEMBLER H                                          * 03920068
*                                                                     * 03960068
*    MODULE SIZE = 9928 DECIMAL BYTES                                 * 04000068
*                                                                     * 04040068
*    ATTRIBUTES = SERIALLY REUSABLE                                   * 04080068
*                                                                     * 04120068
* ENTRY POINT = BNGI3270                                              * 04160068
*                                                                     * 04200068
*    PURPOSE = SEE FUNCTION                                           * 04240068
*                                                                     * 04280068
*    LINKAGE = R1  LOADED WITH THE PARAM LIST POINTER                 * 04320068
*              R14 LOADED WITH THE RETURN ADDR (USED BY SUBROUTINE)   * 04360068
*              R15 LOADED WITH ENTRY POINT                            * 04400068
*                                                                     * 04440068
* INPUT = PARAM LIST ITEMS USED ARE : COMMAREA (LABEL)                * 04480068
*                                                                     * 04520068
* OUTPUT = PARAM LIST ITEMS USED ARE : MSG3270 & MSGBITS (LABELS)     * 04560068
*                                                                     * 04600068
* EXIT-NORMAL = REGISTER 15 RETURN CODE RETURNED TO CALLER :          * 04640068
*               00 - OPERATION PERFORMED AS REQUESTED                 * 04680068
*                                                                     * 04720068
* EXIT-ERROR  = NONE                                                  * 04760068
*                                                                     * 04800068
* EXTERNAL REFERENCE = NONE                                           * 04840068
*                                                                     * 04880068
*    ROUTINES = LOCATE ROUTINE                                        * 04920068
*               GETTIOA ROUTINE (GET TERMINAL OUTPUT AREA)            * 04960068
*               BUOBR ROUTINE (BLOW-UP OBR ROUTINE)                   * 05000068
*               BUMDR ROUTINE (BLOW-UP MDR ROUTINE)                   * 05040068
*                                                                     * 05080068
*    DATA AREAS = NONE                                                * 05120068
*                                                                     * 05160068
*    CONTROL BLOCK = NONE                                             * 05200068
*                                                                     * 05240068
* TABLES = CALENDAR - CONVERT JULIAN DATE TO GREGORIAN DATE TABLE     * 05280068
*          LEAPTBL  - LEAP YEAR CALCULATION TABLE                     * 05320068
*          CCWTABL  - CONVERT 270X COMMAND CODE INTO ENGLISH          * 05360068
*          CSWTABL  - CONVERT LOCAL 327X STATUS OR 270X LINE STATUS   * 05400068
*                     INTO ENGLISH                                    * 05440068
*          SENSTABL - CONVERT 270X LINE SENSE CODE INTO ENGLISH       * 05480068
*          STATSTBL - CONVERT REMOTE 327X STATUS CODE INTO ENGLISH    * 05520068
*          SENS3272 - CONVERT LOCAL 327X SENSE CODE INTO ENGLISH      * 05560068
*          CCW3272  - CONVERT LOCAL 327X COMMAND CODE INTO ENGLISH    * 05600068
*          TPOPTBL  - CONVERT BTAM TP OP CODE INTO ENGLISH            * 05640068
*          IMSPTOP  - CONVERT TCAM TP OP CODE INTO ENGLISH            * 05680068
*          HXTOEB   - HEX CHARS TO EBCDIC CHARS TABLE                 * 05720068
*          EBTOHX   - EBCDIC CHARS TO HEX CHARS TABLE                 * 05760068
*                                                                     * 05800068
* MACROS = LINK, SAVE, RETURN, OPEN, READ, CHECK, CLOSE               * 05840068
*                                                                     * 05880068
***********************CHANGE ACTIVITY FOLLOWS:************************ 05920007
* CHANGE 01  11/15/77  PROLOGUE ADDED                                 * 05920107
* CHANGE 02  03/23/78  BNGHJN MACRO ADDED                             * 05920207
*A109600,142000,353200,387200                                  @OZ31886 05920307
*D113600                                                       @OZ31886 05920407
*                                                                     * 06000068
*********************************************************************** 06040068
*********************************************************************** 06080068
BNGI3270 TITLE 'DISPLAY 3270 MDR AND OBR ENTRIES'                       06120068
*********************************************************************** 06160068
         SPACE                                                          06200068
PCB      DSECT                 MAP OF IMS PROGRAM COMMUNICATION BLOCK   06240068
         USING *,PCBREG          ADDRESS PASSED IN REGISTER 5 BY DISP   06280068
PCBTERMN DS    CL8                 REQUESTING TERMINAL SYMBOLIC NAME    06320068
         DS    CL2                 RESERVED                             06360068
PCBSTAT  DS    CL2                 DL/I STATUS CODE                     06400068
PCBDATE  DS    PL4                 TRANSACTION DATE STAMP 00YYDDDF      06440068
PCBTIME  DS    PL4                 TRANSACTION TIME STAMP HHMMSSTH      06480068
PCBSEQ   DS    F                   TRANSACTION SEQUENCE NUMBER          06520068
PCBMODNM DS    CL8                 MFS MESSAGE OUTPUT DESCRIPTOR NAME   06560068
*********************************************************************** 06600068
COMMAREA DSECT       MAP OF COMMUNICATION AREA PASSED TO THIS PGM       06640068
         USING *,COMMREG      IN REGISTER 12 BY DISP                    06680068
PARM1    DS    D                   1ST INPUT PARM - DEMF                06720068
PARM2    DS    D                   2ND INPUT PARM - 3270                06760068
PARM3    DS    D                   3RD INPUT PARM - LLL OR TTT          06800068
PARM4    DS    D                   4TH INPUT PARM - CC                  06840068
PARM5    DS    D                   5TH INPUT PARM - TT                  06880068
PARM6    DS    D                   6TH INPUT PARM - TT                  06920068
FLDCNT   DS    PL1                 COUNT OF FLD'S KEYED-IN IN INPUT     06960068
SVRELREC DS    CL3           SAVE AREA FOR LINE/CTRL RELATIVE BLOCK NO. 07000068
SAVEBBSS DS    F                   SAVE POINTER TO BLK AND SLOT         07040068
DBLWD    DS    D                   DOUBLEWORD WORK AREA                 07080068
DUBLWD   EQU   DBLWD                                                    07120068
FULLWD   DS    F                   FULLWORD WORK AREA                   07160068
TWATCTID DS    D             SAVE AREA FOR IMS SYMBOLIC LINE POINTER    07200068
* THE FOLLOWING AREAS ARE USED AS INPUT AREA FOR                        07240068
* TRANSACTION MESSAGES, WITH MAPPING AS SHOWN.                          07280068
         SPACE                                                          07320068
MSGIN    DS    0D              MAP OF TRANSACTION MESSAGE SEGMENT:      07360068
TIOATDL  DS    H                   MESSAGE LENGTH INCL. LL,Z1,Z2,DATA   07400068
MSGZ1    DS    X                   FLAG FIELD - USED BY IMS INTERNALLY  07440068
MSGZ2    DS    X                   FLAG FIELD - NON-ZERO IF MFS EDITED  07480068
TIOADBA  DS    0F                  START OF MESSAGE DATA                07520068
MSGTXCD  DS    CL5                                                      07560068
MSGKEYED DS    CL29                                                     07600068
MSGCMDCD DS    CL4                                                      07640068
MSGPGF   DS    C                                                        07680068
MSGID    DS    CL20                                                     07720068
MSGPGB   DS    C                                                        07760068
MSGBBBSS DS    CL15                                                     07800068
MSGNTRY  DS    CL9                                                      07840068
MSGEND   DS    39CL9                                                    07880068
********************************************************************    07920068
         SPACE                                                          07960068
DATASLOT DSECT                 MAP OF MDR AND OBR ENTRIES IN DETL BLK   08000068
         USING *,DATAREG                                                08040068
DATALTH  DS    C                   LTH OF THIS SLOT                     08080068
LINEID   DS    CL6                 LINE AND LIB ADDR                    08120068
ENTRYTYP DS    C                   ENTRY TYPE - MDR OR OBR              08160068
         DS    CL3                                                      08200068
MDRTYPE  DS    C                   TYPE HDWE - 03 EQUALS 3270           08240068
         DS    CL3                                                      08280068
DATE     DS    CL4                 DATE OF ERROR - 00YYDDDF             08320068
TIME     DS    CL4                 TIME OF ERROR - HHMMSSHH             08360068
         DS    CL8                                                      08400068
MDRCUA   DS    CL2                 MDR CHAN & UNIT ADDR                 08440068
MDRCTRL  DS    C                   MDR CTRL UNIT POLL ADDR              08480068
MDRTERM  DS    C                   MDR TERMIL POLL ADDR                 08520068
MDRSTATS DS    CL2                 REMOTE 3270 STATUS                   08560068
         DS    CL2                                                      08600068
OBRCCW   DS    CL8                 LAST CCW EXECUTED                    08640068
OBRCSW   DS    CL8                 CHANNEL STATUS WORD                  08680068
         DS    CL6                                                      08720068
OBRUCB   DS    C                                                        08760068
         DS    CL3                                                      08800068
OBRCUA   DS    CL2                 OBR CHAN & UNIT ADDR                 08840068
OBRCTRL  DS    C                   REMOTE LINE ERRORS UNDER CTRLUNIT    08880068
OBRTERM  DS    C                   REMOTE LINE ERRORS UNDER TERMINAL    08920068
         DS    CL12                                                     08960068
OBRSENSE DS    CL2                 OBR SENSE BYTES                      09000068
         SPACE                                                          09040068
         ORG   DATALTH         MAP OF 16-BYTE SLOT IN CONTROL BLOCK     09080068
CTRLPORT DS    CL6                 PORT & LIB ADDRESS                   09120068
         DS    CL4                 BLOCKS AND HITS                      09160068
CTRLFRST DS    CL3                 REL BLK ADDR 1ST BLK IN CHAIN.       09200068
         DS    CL3                 REL BLK ADDR LAST BLK IN CHAIN       09240068
SLOTLTH  EQU   *-CTRLPORT                                               09280068
FIOADBA  DSECT                 MAP OF 32-BYTE HEADER IN CONTROL BLOCK   09320068
         USING *,FIOABAR                                                09360068
CTRLLAST DS    F                   LAST USED ADDR IN DATASET            09400068
CTRLTOTL DS    F                   TOTAL BLOCKS IN DATASET              09440068
CTRLBACK DS    F                &  BACKWARD PTR IN CTRL BLK CHAIN       09480068
CTRLFWD  DS    F                   FORWARD PTR IN CTRL BLK CHAIN        09520068
CTRLENTS DS    C                   NBR ENTRIES IN THIS CTRL BLK         09560068
         DS    CL15                FOR FUTURE USE                       09600068
CTRLSLT1 DS    0C                  START OF CTRL SLOT NBR ONE.          09640068
         SPACE                                                          09680068
         ORG   FIOADBA         MAP OF 32-BYTE HEADER IN DETAIL BLOCK    09720068
DATAPORT DS    CL6                 PORT & LIB ADDR                      09760068
DATATIME DS    CL4                 TIME BLOCK CREATED                   09800068
DATADATE DS    CL4                 DATE BLOCK CREATED                   09840068
DATAFWD  DS    CL3                 FORWARD CHAIN ADDR                   09880068
DATABACK DS    CL3                 BACKWAD CHAIN ADDR                   09920068
BLKLTH   DS    CL2                 NBR BYTES USED IN THIS BLOCK         09960068
         DS    CL10                                                     10000068
DATASLT1 DS    0C                  START OF 1ST DATA SLOT               10040068
*********************************************************************** 10080068
BNGI3270 CSECT                                                          10120068
*********************************************************************** 10160068
R1       EQU   1                                                        10200068
BASE1    EQU   2                   1ST PROGRAM BASE REG.                10240068
BASE2    EQU   3                   2ND PROGRAM BASE REG.                10280068
BASE3    EQU   4                   3RD PROGRAM BASE REG.                10320068
PCBREG   EQU   5                PTR TO TP-PCB PASSED HERE               10360068
FIOABAR  EQU   6                   FIOA POINTER.                        10400068
DATAREG  EQU   7                   POINTER TO DATA IN EMF FILE BLOCK.   10440068
DATALOOP EQU   8                   LOOP REG FOR PROCESSING WITH DATAREG 10480068
OUTREG   EQU   9                   POINTER TO VARIABLE AREA IN TIOA.    10520068
OUTLOOP  EQU   10                  LOOP REG FOR PROCESSING WITH OUTREG. 10560068
LINKREG  EQU   11                  LINKAGE TO COMMON SUBROUTINES.       10600068
COMMREG  EQU   12               PTR TO COMMUNICATIONS AREA PASSED HERE  10640068
R13      EQU   13                                                       10680068
*********************************************************************** 10720068
* THIS SECTION DOES PROGRAM INITIALIZATION                              10760068
*********************************************************************** 10800068
         SAVE  (14,12)             SAVE CALLER'S REGISTERS              10880068
         BALR  BASE1,0                                                  10920068
         USING *,BASE1,BASE2,BASE3                                      10960068
BNGI3270 BNGHJN SKIPID                                         @OZ31886 10980007
         LA    BASE2,2048(BASE1)    SET SECOND BASE                     11000068
         LA    BASE2,2048(BASE2)       FROM THE FIRST                   11040068
         LA    BASE3,2048(BASE2)    SET THIRD BASE                      11080068
         LA    BASE3,2048(BASE3)       FROM THE SECOND                  11120068
         LA    14,SAVE             POINT TO OUR SAVE AREA               11160068
         ST    14,8(13)            FORWARD CHAIN FROM OLD               11200068
         ST    13,4(14)            BACKWARD CHAIN TO OLD                11240068
         LR    13,14               FIRST BASE AND S/A FOR OUR REGS      11280068
         B     A001                                                     11320068
SAVE     DS    18F                 SAVE AREA                            11400068
*******                                                                 11440068
*********************************************************************** 11480068
* THIS SECTION  RETURNS TO BNGIDISP  *                                  11520068
         EJECT                                                          11560068
*********************************************************************** 11600068
* THIS IS A COMMON READ SUBROUTINE FOR THIS PROGRAM.                    11640068
*********************************************************************** 11680068
READ     ST    11,SAVE11                                                11720068
         LA    11,PARMADDR         SET UP PARM REG                      11760068
         L     15,=V(BNGIREAD)    POINT TO READ MODULE                  11800068
         BALR  14,15              LINK TO BDAM READ MODULE              11840068
         L     11,SAVE11                                                11880068
         OC    STATUS,STATUS      READ OK?                              11920068
         BZ    0(LINKREG)         YES. RETURN TO CALLER                 11960068
         CLC   STATUS,=C'FF'       WAS EMFILE OPENED?                   12000068
         BE    Z60                 NO.  WRITE 'NOT OPEN' MSG            12040068
         UNPK  DBLWD,STATUS(3)                                          12080068
         MVC   IOERCODE,DBLWD+3                                         12120068
         TR    IOERCODE,HXTOEB     MOVE BDAM RETURN CODE TO I/O ERR MSG 12160068
         UNPK  DBLWD,RELREC(4)                                          12200068
         MVC   IOERBLK,DBLWD+4     MOVE BLK NBR THAT WAS BEING READ     12240068
         TR    IOERBLK,HXTOEB                                           12280068
         B     Z20                     IF REQUESTED SLOT CAN'T          12320068
*                                        BE FOUND, SEND 'SEARCHING ERR' 12360068
SAVE11   DS    F                                                        12400068
*********************************************************************** 12440068
*********************************************************************** 12480068
A001     CP    FLDCNT,=P'0'        WAS DATA KEYED-IN?                   12520068
         BE    J010                NO. GO EXAMINE INPUT FURTHER.        12560068
A010     XC    RELREC,RELREC       YES. THIS IS A NEW RECAP REQUEST.    12600068
         OC    PARM3,PARM3         WAS LINE ID INPUT?                   12640068
         BZ    Z40                 NO. SEND 'INVALID INPUT' MSG.        12680068
B140     MVC   DUBLWD+5(3),PARM3                                        12720068
         TR    DUBLWD,EBTOHX            GET LINE,                       12760068
         PACK  DUBLWD(3),DUBLWD+5(4)    CONTROL UNIT,                   12800068
         MVC   HEXLINE,DUBLWD           AND                             12840068
         MVC   DUBLWD+5(3),PARM4        TERMINAL                        12880068
         TR    DUBLWD,EBTOHX            ADDRESS                         12920068
         PACK  DUBLWD(2),DUBLWD+5(3)    INTO HEX                        12960068
         MVC   HEXCTRL,DUBLWD           FORMAT                          13000068
         MVC   DUBLWD+5(3),PARM5        FOR COMPARING                   13040068
         TR    DUBLWD,EBTOHX            TO DATA IN                      13080068
         PACK  DUBLWD(2),DUBLWD+5(3)    DISK FILE.                      13120068
         MVC   HEXTERM,DUBLWD                                           13160068
         MVC   LGBBBSS,=C'BBBSSBBBSSBBBSS'   INITIALIZE PAGING BBBSS'S  13200068
         MVC   SMBBBSS,=C'BBBSSBBBSSBBBSS'   INITIALIZE PAGING BBBSS'S  13240068
         BAL   LINKREG,GETTIOA     SETUP NEW OUTPUT AREA WITH HDRS.     13280068
D080     BAL   LINKREG,READ                                             13320068
D190     L     FIOABAR,IOAREA      POINT TO FILE I/O AREA.              13360068
         SR    DATALOOP,DATALOOP   SETUP TO LOOP ON NBR OF              13400068
         IC    DATALOOP,CTRLENTS   ENTRIES IN THIS CNTRL BLK.           13440068
         LTR   DATALOOP,DATALOOP   VERIFY THAT THE DATA SET             13480068
         BZ    Z50                 IS NOT EMPTY. IF SO, WRT NO ERRS MSG 13520068
E030     LA    DATAREG,CTRLSLT1    POINT TO FIRST CTRL SLOT.            13560068
E040     OC    PARM4,PARM4         WAS A CTRL UNIT ADDR INPUT?          13600068