         PRINT OFF                                                      00050007
         MACRO                                                          00050407
&NAME    BNGHJN &LABEL,&HJN                                             00050807
         LCLC  &HJA,&HJB                                                00051207
&HJA     SETC  '&SYSPARM'(1,4)                                          00051607
&HJB     SETC  '&SYSPARM'(5,4)                                          00052007
         AIF   ('&LABEL' EQ '').NOBRNCH                                 00052407
         B     &LABEL .                 BR AROUND CONSTANTS             00052807
         SPACE 2                                                        00053207
.NOBRNCH ANOP                                                           00053607
         AIF   ('&NAME' EQ '').NOLABEL                                  00054007
         DC    C'&NAME' .              MODULE IDENTIFIER                00054407
.NOLABEL ANOP                                                           00054807
         DC    X'&HJA' .                DATE OF MODIFICATION            00055207
         AIF   ('&HJN' NE 'HJN').DATE                                   00055607
         DC    X'&HJB' .                HJN OF MODIFICATION             00056007
.DATE    ANOP                                                           00056407
         AIF   ('&LABEL' EQ '').NOLBL                                   00056807
         SPACE 2                                                        00057207
&LABEL   DS    0H                                                       00057607
.NOLBL   ANOP                                                           00058007
         MEND                                                           00058407
         PRINT ON                                                       00058807
*********************************************************************** 00059207
*                                                                     * 00100000
* MODULE NAME = BNGIDISP                                              * 00150000
*                                                                     * 00200000
* DESCRIPTIVE NAME =  IMS DEMF DISPLAY CONTROL MODULE                 * 00250000
*                                                                     * 00300000
* COPYRIGHT = NONE                                                    * 00350000
*                                                                     * 00400000
* STATUS = RELEASE 1, LEVEL 1                                         * 00450000
*                                                                     * 00500000
* FUNCTION = 1) READS INPUT MESSAGE FROM IMS MESSAGE QUEUE;           * 00550000
*            2) EDITS THE INPUT INTO 6 PARM FIELDS WITH LEFT JUSTIFY; * 00600000
*            3) DOES SYNTAX CHECK ON DEMF COMMANDS AND PARAMETERS;    * 00650000
*            4) DETERMINES WHETHER THE REQUEST IS FOR MENU,REMOTE,    * 00700000
*               LOCAL OR 3270 SCREEN ERROR DISPLAY AND LINKS          * 00750000
*               TO BNGTMENU,BNGTRMOT,BNGTLOCL OR BNGT3270 SEGMENT     * 00800000
*               ACCORDINGLY WITH PARAMETERS;                          * 00850000
*            5) HANDLES ALL,LINE AND CTRL ERROR DISPLAY REQUEST AND   * 00900000
*               WRITES ITS ERROR INFORMATION TO THE 3270 DISPLAY      * 00950000
*               TERMINAL AND ISSUES SOME OF THE DISPLAY MESSAGES;     * 01000000
*            6) LINKS TO BNGIREAD TO READ SYS1.DEMFLOG FOR ALL,LINE,  * 01050000
*               CTRL ERROR DISPLAY REQUESTS;                          * 01100000
*            7) WHEN THE INPUT MESSAGE HAS BEEN PROCESSED, BNGIDISP   * 01150000
*               READS ANOTHER MESSAGE. THIS PROCESS CONTINUES UNTIL   * 01200000
*               THE MESSAGE QUEUE IS EXHAUSTED. THEN BNGIDISP RETURNS * 01250000
*               CONTROL TO IMS.                                       * 01300000
*                                                                     * 01350000
* NOTES = NONE                                                        * 01400000
*                                                                     * 01450000
*    DEPENDENCIES = NONE                                              * 01500000
*                                                                     * 01550000
*    RESTRICTIONS = NONE                                              * 01600000
*                                                                     * 01650000
*    REGISTER CONVENTIONS :                                           * 01700000
*    --------------------                                             * 01750000
*                                                                     * 01800000
*    ALL DEMF RECORDING DISPLAY COMPONENTS USE STANDARD REGISTER      * 01850000
*    CONVENTIONS WITH THE EXCEPTION OF THE IMS DISPLAY COMPONENTS.    * 01900000
*    CERTAIN IMS MODULES USE ADDITIONAL REGISTERS AND THE LINK MACRO  * 01950000
*    FOR PASSING OR RETRIEVING DATA PARAMETER INFORMATION AND ARE     * 02000000
*    DETAILED BELOW:                                                  * 02050000
*                                                                     * 02100000
*     MODULE    REGISTER    CONTENTS.                                 * 02150000
*    --------   --------    ------------------------------------      * 02200000
*    BNGIDISP     R5        PASSES ADDRESS OF IMS PROGRAM             * 02250000
*                           COMMUNICATION BLOCK (PCB) TO              * 02300000
*                           BNGI3270, BNGIMENU, BNGILOCL, AND         * 02350000
*                           BNGIRMOT.                                 * 02400000
*                                                                     * 02450000
*                 R11       PASSES TO BNGIREAD THE ADDRESS OF A       * 02500000
*                           PARAMETER LIST CONTAINING:                * 02550000
*                                                                     * 02600000
*                          1) 4-BYTES - ADDRESS OF I/O AREA FROM      * 02650000
*                                       BNGIREAD                      * 02700000
*                                                                     * 02750000
*                          2) 3-BYTES - RELATIVE BLOCK ADDRESS TO     * 02800000
*                                       BE READ BY BNGIREAD           * 02850000
*                                                                     * 02900000
*                          3) 2-BYTES - STATUS OF READ FROM           * 02950000
*                                       BNGIREAD                      * 03000000
*                                                                     * 03050000
*                 R12      FOR BNGI3270, PASSES THE ADDRESS OF A      * 03100000
*                          COMMUNICATION AREA CONTAINING              * 03150000
*                          UP TO SIX EDITTED PARM FIELDS, SAVE        * 03200000
*                          AND WORK AREAS, AND THE INPUT MESSAGE.     * 03250000
*                                                                     * 03300000
*                          FOR BNGILOCL, BNGIRMOT, AND BNGIMENU;      * 03350000
*                          PASSES THE ADDRESS OF THE INPUT MESSAGE.   * 03400000
*                                                                     * 03450000
*    BNGIREAD    LINK TO BNGIDCBA       RETRIEVES THE ADDRESS OF THE  * 03500000
*                (ALIAS FOR BNGISIMS)   ADDRESS OF THE SYS1.DEMFLOG   * 03550000
*                                       DCB.                          * 03600000
*                                                                     * 03650000
*                 R11      RECEIVES ADDRESS OF PARAMETER LIST         * 03700000
*                          (SEE BNGIDISP R11 FOR LIST).               * 03750000
*                                                                     * 03800000
*    BNGI3270     R5      RECEIVES ADDRESS OF IMS PCB FROM BNGIDISP   * 03850000
*                                                                     * 03900000
*                 R11     PASSES TO BNGIREAD THE ADDRESS OF A         * 03950000
*                         PARAMETER LIST (SEE BNGIDISP R11 FOR LIST)  * 04000000
*                                                                     * 04050000
*                 R12     RECEIVES FROM BNGIDISP THE ADDRESS OF THE   * 04100000
*                         COMMUNICATION AREA (SEE BNGIDISP R12 FOR    * 04150000
*                         CONTENTS OF AREA).                          * 04200000
*                                                                     * 04250000
*    BNGIMENU     R5      RECEIVES ADDRESS OF IMS PCB FROM BNGIDISP   * 04300000
*                                                                     * 04350000
*                 R12     RECEIVES ADDRESS OF INPUT MESSAGE FROM      * 04400000
*                         BNGIDISP.                                   * 04450000
*                                                                     * 04500000
*    BNGILOCL     R5      RECEIVES ADDRESS OF IMS PCB FROM BNGIDISP   * 04550000
*                                                                     * 04600000
*                 R12     RECEIVES ADDRESS OF INPUT MESSAGE FROM      * 04650000
*                         BNGIDISP.                                   * 04700000
*                                                                     * 04750000
*    BNGIRMOT     R5      RECEIVES ADDRESS OF IMS PCB FROM BNGIDISP   * 04800000
*                                                                     * 04850000
*                 R12     RECEIVES ADDRESS OF INPUT MESSAGE FROM      * 04900000
*                         BNGIDISP.                                   * 04950000
*                                                                     * 05000000
*                                                                     * 05050000
*    PATCH LABEL = NONE                                               * 05100000
*                                                                     * 05150000
* MODULE TYPE = IMS DISPLAY CONTROL                                   * 05200000
*                                                                     * 05250000
*    PROCESSOR = ASSEMBLER H                                          * 05300000
*                                                                     * 05350000
*    MODULE SIZE = 9047 DECIMAL BYTES                                 * 05400000
*                                                                     * 05450000
*    ATTRIBUTES = SERIALLY REUSABLE                                   * 05500000
*                                                                     * 05550000
* ENTRY POINT = BNGIDISP                                              * 05600000
*                                                                     * 05650000
*    PURPOSE = SEE FUNCTION                                           * 05700000
*                                                                     * 05750000
*    LINKAGE = R1  LOADED WITH THE PARAM LIST POINTER                 * 05800000
*              R14 LOADED WITH THE RETURN ADDR (USED BY SUBROUTINE)   * 05850000
*              R15 LOADED WITH ENTRY POINT                            * 05900000
*                                                                     * 05950000
* INPUT = PARAM LIST ITEMS USED ARE :  MSGIN  (LABEL)                 * 06000000
*                                                                     * 06050000
* OUTPUT = PARAM LIST ITEMS USED ARE : MSGOUT (LABEL)                 * 06100000
*                                                                     * 06150000
* EXIT-NORMAL = REGISTER 15 RETURN CODE RETURNED TO CALLER :          * 06200000
*               00 - OPERATION PERFORMED AS REQUESTED                 * 06250000
*                                                                     * 06300000
* EXIT-ERROR  = NONE                                                  * 06350000
*                                                                     * 06400000
* EXTERNAL REFERENCE = BNGILOCL,BNGIRMOT,BNGIMENU,BNGI3270 & BNGIREAD * 06450000
*                                                                     * 06500000
*    ROUTINES = LOCATE ROUTINE                                        * 06550000
*               MOD1SCAN ROUTINE                                      * 06600000
*               MOD1 TABLE BUILD (AT LABEL S215) ROUTINE              * 06650000
*                                                                     * 06700000
*    DATA AREAS = NONE                                                * 06750000
*                                                                     * 06800000
*    CONTROL BLOCK = NONE                                             * 06850000
*                                                                     * 06900000
* TABLES = TABLE    - FUNCTION/COMPANION TABLE                        * 06950000
*          MOD1TAB  - 3277 MODEL 1 TABLE                              * 07000000
*          HXTOEB   - HEX CHARS TO EBCDIC CHARS TABLE                 * 07050000
*          EBTOHX   - EBCDIC CHARS TO HEX CHARS TABLE                 * 07100000
*          LOTOUP   - LOWER TO UPPER CASE CHARS TABLE                 * 07150000
*                                                                     * 07200000
* MACROS = SAVE, RETURN, CALL(FOR GET/PUT MSG), ABEND                 * 07250000
*          (HARD CODED LINK)                                          * 07300000
*                                                                     * 07350000
* CHANGE ACTIVITIES AS FOLLOWS:                                       * 07400000
* CHANGE 01  11/15/77  PROLOGUE ADDED                                 * 07400107
* CHANGE 02  02/22/77  BNGHJN MACRO ADDED                             * 07400207
*D122000,128500-129000                                         @OZ29912 07400307
*C181500                                                       @OZ29912 07400407
*A123500,614000,635000                                         @OZ29912 07400507
*A489500                                                       @OZ31883 07400607
*D417500-418500                                                @OZ31879 07400707
*C420000-421000,505500-506000,553000-554000,555500-559000      @OZ31879 07400807
*C560500-563000                                                @OZ31879 07400907
*A373500,614200,635400                                         @OZ31886 07401007
*                                                                     * 07500000
*********************************************************************** 07550000
*********************************************************************** 07600000
*                                                                     * 07650000
BNGIDISP TITLE 'DISPLAY AUDITS INPUT AND DISPLAYS ALL LINES,LINE, CTRL' 07700000
*                                                                     * 07750000
*********************************************************************** 07800000
         SPACE                                                          07850000
PCB      DSECT                 MAP OF IMS PROGRAM COMMUNICATION BLOCK   07900000
         USING *,PCBREG                                                 07950000
PCBTERMN DS    CL8                 REQUESTING TERMINAL SYMBOLIC NAME    08000000
         DS    CL2                 RESERVED                             08050000
PCBSTAT  DS    CL2                 DL/I STATUS CODE                     08100000
PCBDATE  DS    PL4                 TRANSACTION DATE STAMP 00YYDDDF      08150000
PCBTIME  DS    PL4                 TRANSACTION TIME STAMP HHMMSSTH      08200000
PCBSEQ   DS    F                   TRANSACTION SEQUENCE NUMBER          08250000
PCBMODNM DS    CL8                 MFS MESSAGE OUTPUT DESCRIPTOR NAME   08300000
FIOADBA  DSECT                                                          08350000
         USING *,FIOABAR                                                08400000
CTRLLAST DS    F                   LAST USED ADDR IN DATASET            08450000
CTRLTOTL DS    F                   TOTAL BLOCKS IN DATASET              08500000
CTRLBACK DS    F                   BACKWARD PTR IN CTRL BLK CHAIN       08550000
CTRLFWD  DS    F                   FORWARD PTR IN CTRL BLK CHAIN        08600000
CTRLENTS DS    C                   NBR ENTRIES IN THIS CTRL BLK         08650000
         DS    CL15                FOR FUTURE USE                       08700000
CTRLSLT1 DS    0C                  START OF CTRL SLOT NBR ONE.          08750000
         ORG   FIOADBA                                                  08800000
DATAPORT DS    CL6                 PORT & LIB ADDR                      08850000
DATATIME DS    CL4                 TIME BLOCK CREATED                   08900000
DATADATE DS    CL4                 DATE BLOCK CREATED                   08950000
DATAFWD  DS    CL3                 FORWARD CHAIN ADDR                   09000000
DATABACK DS    CL3                 BACKWAD CHAIN ADDR                   09050000
BLKLTH   DS    CL2                 NBR BYTES USED IN THIS BLOCK         09100000
         DS    CL10                                                     09150000
DATASLT1 DS    0C                  START OF 1ST DATA SLOT               09200000
SLOTS    DSECT           MAP OF ENTRIES IN CONTROL BLOCK                09250000
         USING *,DATAREG                                                09300000
SLOTLINE DS    CL6                CHANNEL ADDRESS(PORT OR LIB)          09350000
SLOTNBC  DS    CL2                NUMBER OF BLOCKS IN THIS CHAIN        09400000
SLOTHITS DS    CL2                TOTAL HITS ON THIS LINE               09450000
SLOTRFB  DS    CL3                RELATIVE ADDRESS FIRST BLOCK IN CHAIN 09500000
SLOTRLB  DS    CL3                RELATIVE ADDRESS LAST BLOCK IN CHAIN  09550000
SLOTLTH  EQU   *-SLOTS                                                  09600000
         ORG   SLOTS         MAP OF MDR AND OBR IN DETAIL BLOCKS        09650000
DATALTH  DS    C                   LTH OF THIS SLOT                     09700000
LINEIDA  DS    CL6                 LINE AND LIB ADDR                    09750000
ENTRYTYP DS    C                   ENTRY TYPE - MDR OR OBR              09800000
         DS    CL3                                                      09850000
MDRTYPE  DS    C                   TYPE HDWE - 03 EQUALS 3270           09900000
         DS    CL3                                                      09950000
DATE     DS    CL4                 DATE OF ERROR - 00YY0DDF             10000000
TIME     DS    CL4                 TIME OF ERROR - HHMMSSHH             10050000
         DS    CL8                                                      10100000
MDRCUA   DS    CL2                 MDR CHAN & UNIT ADDR                 10150000
MDRCTRL  DS    C                   MDR CTRL UNIT POLL ADDR              10200000
MDRTERM  DS    C                   MDR TERMIL POLL ADDR                 10250000
MDRSTATS DS    CL2                 REMOTE 3270 STATUS                   10300000
         DS    CL2                                                      10350000
OBRCCW   DS    CL8                 LAST CCW EXECUTED                    10400000
OBRCSW   DS    CL8                 CHANNEL STATUS WORD                  10450000
         DS    CL6                                                      10500000
OBRUCB   DS    C                                                        10550000
         DS    CL3                                                      10600000
OBRCUA   DS    CL2                 OBR CHAN & UNIT ADDR                 10650000
OBRCTRL  DS    C                                                        10700000
OBRTERM  DS    C                                                        10750000
         DS    CL12                                                     10800000
OBRSENSE DS    CL2                 OBR SENSE BYTES                      10850000
*********************************************************************** 10900000
BNGIDISP CSECT                                                          10950000
R1       EQU   1                                                        11000000
BASE1    EQU   2             BASE REGISTER ONE = 0-4095                 11050000
BASE2    EQU   3             BASE REGISTER TWO = 4096-8191              11100000
BASE3    EQU   4             BASE REGISTER THREE = 8192-12287           11150000
PCBREG   EQU   5             IMS PGM COMM BLOCK BASE                    11200000
FIOABAR  EQU   6             POINTS TO FIOA                             11250000
PARMREG  EQU   6             POINTS TO PARM AREA                        11300000
OUTREG   EQU   7             POINTS TO DATA IN TIOA AREA                11350000
OUTLOOP  EQU   8             USED FOR LOOPING THRU DATA IN TIOA AREA    11400000
DATAREG  EQU   9             POINTS TO DATA IN FIOA AREA                11450000
DATALOOP EQU   10            USED FOR LOOPING THRU DATA IN FIOA AREA    11500000
TABLEREG EQU   11            POINTS TO FUNCTION/COMPANION TABLE AND     11550000
*                              VTAM DSECT.                              11600000
LINKREG  EQU   11                  SUBROUTINE LINKAGE                   11650000
R11      EQU   11                                                       11700000
MOD1REG  EQU   12            POINTS TO MOD-1 TABLE                      11750000
R13      EQU   13                                                       11800000
R14      EQU   14                                                       11850000
R15      EQU   15                                                       11900000
*********************************************************************** 11950000
*                                                                     * 12000000
*        THIS SECTION DOES PROGRAM INITIALIZATION                     * 12050000
*                                                                     * 12100000
*********************************************************************** 12150000
         SAVE  (14,12)             SAVE CALLER'S REGISTERS              12250000
         BALR  BASE1,0                                                  12300000
         USING *,BASE1,BASE2,BASE3                                      12350000
BNGIDISP BNGHJN SKIPID                                         @OZ29912 12370007
         LA    BASE2,2048(BASE1)    SET SECOND BASE                     12400000
         LA    BASE2,2048(BASE2)       FROM THE FIRST                   12450000
         LA    BASE3,2048(BASE2)    SET THIRD BASE                      12500000
         LA    BASE3,2048(BASE3)       FROM THE SECOND                  12550000
         LA    14,SAVE             POINT TO OUR SAVE AREA               12600000
         ST    14,8(13)            FORWARD CHAIN FROM OLD               12650000
         ST    13,4(14)            BACKWARD CHAIN TO OLD                12700000
         LR    13,14               FIRST BASE AND S/A FOR OUR REGS      12750000
         B     GO                                                       12800000
SAVE     DS    18F                 SAVE AREA                            12950000
GO       DS    0H                                                       13000000
         MVC   IOPCB+1(3),1(R1)     SAVE IOPCB ADDRESS                  13050000
*********************************************************************** 13100000
*                                                                     * 13150000
*        THIS SECTION  GETS A TRANSACTION                             * 13200000
*                                                                     * 13250000
*********************************************************************** 13300000
GETRANS  DS    0H                                                       13350000
         MVI   MOD1TABL,C' '       BLANK OUT MOD-1 TABLE AREA           13400000
         MVC   MOD1TABL+1(63),MOD1TABL                                  13450000
         MVI   MOD1SW,X'00'        SET MOD-1 SWITCH OFF                 13500000
         MVI   ERRDATA,C' '        BLANK OUT ERROR MESSAGE AREA         13550000
         MVC   ERRDATA+1(116),ERRDATA  *                                13600000
         L     PCBREG,IOPCB        POINT TO IOPCB                       13650000
         CALL  ASMTDLI,(GU,(PCBREG),MSGIN),VL     GET INPUT MSG         13700000
         CLC   PCBSTAT,DLIOK       MESSAGE SEGMENT OBTAINED?            13750000
         BE    A100                GO RESPOND TO MESSAGE IF SO          13800000
         CLC   PCBSTAT,DLIQC       NO MORE TRANSACTIONS AVAILABLE?      13850000
         BNE   ABEND1              INFORM SOMEONE IF UNKNOWN STATUS     13900000
         L     R13,4(R13)          RESTORE INCOMING SAVE AREA ADDRESS   13950000
         RETURN (14,12),T,RC=0     RELINQUISH CONTROL                   14000000
ABEND1   ABEND 666,DUMP                                                 14050000
CHECKST  CLC   PCBSTAT,DLIOK       DID ISRT GO OK?                      14100000
         BE    GETRANS             IF SO, GET ANOTHER MESSAGE           14150000
ABENDMSG ABEND 444,DUMP                                                 14200000
         EJECT                                                          14250000
*********************************************************************** 14300000
*                                                                     * 14350000
*        THIS SECTION EDITS THE INPUT MESSAGE.                        * 14400000
*                                                                     * 14450000
*********************************************************************** 14500000
A100     ZAP   FLDCNT,=P'0'        SET KEYED-IN FIELD COUNTER TO ZERO.  14550000
         XC    PARM1(48),PARM1     ZERO OUT PARM FIELDS                 14600000
         MVC   PARM1(4),MSGTXCD    MOVE TRANSACTION CODE 'DEMF'         14650000
         LH    DATAREG,TIOATDL     SET DATAREG = LNGTH OF INPUT         14700000
         CH    DATAREG,=H'9'       'DEMF ' ONLY ENTERED FROM CLEAR SCR? 14750000
         BNH   D28                 YES. GOTO BNGIMENU                   14800000
         CLC   MSGKEYED,=CL29' '   WAS REQUEST KEYED IN?                14850000
         BNE   A150                YES.                                 14900000
         CLC   MSGCMDCD,=C'MENU'   IS INPUT ENTERED ON PAGE1?           14950000
         BNE   A115                NO.                                  15000000
         CLC   MSGDPRSS,=C'DEPRESS'     IS INPUT ENTERED FROM PAGE 1?   15050000
         BNE   D28                      NO.  GO TO BNGIMENU RTN         15100000
         CLI   MSGALL,C' '         IS ALL CHECKED?                      15150000
         BNE   A100ALL             YES.                                 15200000
         CLI   MSG3270,C' '        IS 3270 CHECKED?                     15250000
         BNE   A150                YES.                                 15300000
         CLI   MSGRMOT,C' '        IS REMOTE CHECKED?                   15350000
         BNE   A100RMOT            YES.                                 15400000
         CLI   MSGLOCL,C' '        IS LOCAL CHECKED?                    15450000
         BNE   A100LOCL            YES.                                 15500000
         B     D28                 GO CALL BNGIMENU RTN                 15550000
A100ALL  MVC   PARM2(3),=C'ALL'    MOVE CMND TO PARM2                   15600000
         B     D10                                                      15650000
A100RMOT MVC   PARM2(4),=C'REMO'   MOVE CMND TO PARM2                   15700000
         B     D10                                                      15750000
A100LOCL MVC   PARM2(4),=C'LOCA'   MOVE CMND TO PARM2                   15800000
         B     D10                                                      15850000
A115     MVC   PARM2(4),MSGCMDCD   MOVE COMMAND ALL, LINE, CTRL,        15900000
*                                                3270, OR MENU          15950000
         MVC   SAVEBBSS,MSGBBBSS   SAVE BBBSS FOR LINKED-TO PGM         16000000
         CLI   MSGPGF,C' '         IS THIS A PAGE FORWARD REQUEST?      16050000
         BNE   A120                YES.                                 16100000
         CLI   MSGPGB,C' '         IS THIS A PAGE BACKWARD REQUEST?     16150000
         BE    A140                NO.  MUST BE COMPANION REQUEST       16200000
         MVC   PARM4(4),=C'PAGE'                                        16250000
         MVC   PARM5(7),=C'BACKWRD'                                     16300000
         B     D10                 CONT NORMAL PROCESSING               16350000
A120     MVC   PARM4(4),=C'PAGE'                                        16400000
         MVC   PARM5(7),=C'FORWARD'                                     16450000
         B     D10                                                      16500000
A140     CLC   MSGCMDCD,=C'3270'   IS THIS FROM 3270 SCREEN?            16550000
         BNE   A145                NO.                                  16600000
         CLC   MSGNTRY(4),=C'BITS' IS THIS FROM BITS PRMPTR SCR?        16650000
         BE    D10                 YES. GOTO BNGI3270 PGM               16700000
A145     MVC   PARM3,MSGNTRY+4     MOVE X'ED-IN DATA TO PARM3           16750000