         PRINT OFF                                                      00050007
         MACRO                                                          00050407
&NAME    BNGHJN &LABEL,&HJN                                             00050807
         LCLC  &HJA,&HJB                                                00051207
&HJA     SETC  '&SYSPARM'(1,4)                                          00051607
&HJB     SETC  '&SYSPARM'(5,4)                                          00052007
         AIF   ('&LABEL' EQ '').NOBRNCH                                 00052407
         B     &LABEL .                 BR AROUND CONSTANTS             00052807
         SPACE 2                                                        00053207
.NOBRNCH ANOP                                                           00053607
         AIF   ('&NAME' EQ '').NOLABEL                                  00054007
         DC    C'&NAME' .              MODULE IDENTIFIER                00054407
.NOLABEL ANOP                                                           00054807
         DC    X'&HJA' .                DATE OF MODIFICATION            00055207
         AIF   ('&HJN' NE 'HJN').DATE                                   00055607
         DC    X'&HJB' .                HJN OF MODIFICATION             00056007
.DATE    ANOP                                                           00056407
         AIF   ('&LABEL' EQ '').NOLBL                                   00056807
         SPACE 2                                                        00057207
&LABEL   DS    0H                                                       00057607
.NOLBL   ANOP                                                           00058007
         MEND                                                           00058407
         PRINT ON                                                       00058807
*********************************************************************** 00059207
*                                                                     * 00100000
* MODULE NAME = BNGIEXIT                                              * 00150000
*                                                                     * 00200000
* DESCRIPTIVE NAME = IMS DEMF USER EXIT SYMBOLIC NAME CONVERSION      * 00250000
*                    MODULE                                           * 00300000
*                                                                     * 00350000
* COPYRIGHT = NONE                                                    * 00400000
*                                                                     * 00450000
* STATUS = RELEASE 1, LEVEL 1                                         * 00500000
*                                                                     * 00550000
* FUNCTION = CONVERTS SYMBOLIC NAME TO EXPLICIT HARDWARE ADDRESSES    * 00600000
*            IN THE FORM OF CONTROL/LINE/TERMINAL FOR REMOTE TERMINAL * 00650000
*            SYMBOLIC NAME OR IN THE FORM OF TERMINAL ADDRESS ONLY    * 00700000
*            FOR LOCAL TERMINAL SYMBOLIC NAME.                        * 00750000
*                                                                     * 00800000
* NOTES = NONE                                                        * 00850000
*                                                                     * 00900000
*    DEPENDENCIES =                                                   * 00950000
*                                                                     * 01000000
*    THE FOLLOWING ARE IMS CONTROL BLOCKS AND THEIR LABELS AS USED BY * 01050000
*    DEMF IMS BNGIEXIT MODULE:                                        * 01100000
*                                                                     * 01150000
*    IMS                                                              * 01200000
*    CONTROL BLOCKS                  LABELS USED                      * 01250000
*    ----------------------------    -----------                      * 01300000
*                                                                     * 01350000
*    COMMUNICATION LINE BLOCK        CLBFLAG3                         * 01400000
*    (CLB)                           CLB3DECB                         * 01450000
*                                    CLB3CL40                         * 01500000
*                                    CLBDCB                           * 01550000
*                                                                     * 01600000
*    COMMUNICATION NAME TABLE        CNTNAME1                         * 01650000
*    (CNT)                           CNTCTBPT                         * 01700000
*                                                                     * 01750000
*    COMMUNICATION TERMINAL BLOCK    CTBCLB                           * 01800000
*    (CTB)                           CTBTERM                          * 01850000
*                                                                     * 01900000
*    SYSTEM CONTENTS DIRECTORY       SCDCNT                           * 01950000
*    (SCD)                           SCDCNTN                          * 02000000
*                                    SCDCNTL                          * 02050000
*                                                                     * 02100000
*    RESTRICTIONS = NONE                                              * 02150000
*                                                                     * 02200000
*    REGISTER CONVENTIONS =  R7  ADDRESS OF COMM TERM BLOCK (CTB)     * 02250000
*                            R9  ADDRESS OF COMM LINK BLOCK (CLB)     * 02300000
*                            R10 ADDRESS OF COMM NAME TABLE (CNT)     * 02350000
*                            R11 ADDRESS OF SYSTEM CONTENTS DIR (SCD) * 02400000
*                                                                     * 02450000
*    PATCH LABEL = BNGIPTCH                                           * 02500000
*                                                                     * 02550000
* MODULE TYPE =  IMS USER EXIT                                        * 02600000
*                                                                     * 02650000
*    PROCESSOR = ASSEMBLER H                                          * 02700000
*                                                                     * 02750000
*    MODULE SIZE = 1524 DECIMAL BYTES                                 * 02800000
*                                                                     * 02850000
*    ATTRIBUTES =  SERIALLY REUSABLE                                  * 02900000
*                                                                     * 02950000
* ENTRY POINT = BNGIEXIT                                              * 03000000
*                                                                     * 03050000
*    PURPOSE = SEE FUNCTION                                           * 03100000
*                                                                     * 03150000
*    LINKAGE = R1  LOADED WITH THE PARAM LIST POINTER                 * 03200000
*              R14 LOADED WITH THE RETURN ADDR (USED BY SUBROUTINE)   * 03250000
*              R15 LOADED WITH ENTRY POINT                            * 03300000
*                                                                     * 03350000
* INPUT = PARAM LIST ITEMS USED ARE :                                 * 03400000
*                                                                     * 03450000
* OUTPUT = PARAM LIST ITEMS USED ARE :                                * 03500000
*                                                                     * 03550000
* EXIT-NORMAL = REGISTER 15 RETURN CODE RETURNED TO CALLER :          * 03600000
*               00 - OPERATION PERFORMED AS REQUESTED                 * 03650000
*                                                                     * 03700000
* EXIT-ERROR  = NONE                                                  * 03750000
*                                                                     * 03800000
* EXTERNAL REFERENCE = NONE                                           * 03850000
*                                                                     * 03900000
*    ROUTINES =                                                       * 03950000
*                                                                     * 04000000
*    DATA AREAS =                                                     * 04050000
*                                                                     * 04100000
*    CONTROL BLOCK = DCB                                              * 04150000
*                                                                     * 04200000
* TABLES = SEE DEPENDENCIES ABOVE                                     * 04250000
*                                                                     * 04300000
* MACROS = SAVE, RETURN                                               * 04350000
*                                                                     * 04400000
* CHANGE ACTIVITIES AS FOLLOWS:                                       * 04450000
* CHANGE 01  11/15/77  PROLOGUE ADDED                                 * 04450107
* CHANGE 02  02/22/78  BNGHJN MACRO ADDED                             * 04450207
*D100750                                                       @OZ29911 04450307
*A078000                                                       @OZ29911 04450407
*A060000,061000,063000                                         @OZ30477 04450507
*C103500,134500                                                @OZ30477 04450607
*                                                                     * 04550000
*********************************************************************** 04600000
BNGIEXIT  TITLE  'DEMF TRANSACTION INPUT EDIT USER EXIT FOR IMS 1.1.4'  04650000
*********************************************************************** 04700000
*                                                                     * 04750000
* SINCE AN IMS MESSAGE PROCESSING PROGRAM (BMP OR MPP) HAS NO ACCESS  * 04800000
* TO IMS CONTROL BLOCKS AND ONE DESIRABLE FEATURE OF DEMF (DISPLAY    * 04850000
* EXCEPTION MONITORING FACILITY) IS THE ABILITY TO DISPLAY A TERMINAL * 04900000
* ERROR DATA WHEN ONLY ITS SYMBOLIC NAME IS KNOWN, OR NOTHING IS KNOWN* 04950000
* EXCEPT THAT IT IS CONNECTED TO AN DEMF-SUPPORTING SOFTWARE PACKAGE, * 05000000
* IMS BEING SUCH PACKAGE, SOME WAY NEEDED TO BE FOUND TO OBTAIN LINE, * 05050000
* CONTROL UNIT, AND TERMINAL ADDRESSES, AVAILABLE ONLY IN THE IMS     * 05100000
* CONTROL REGION, AND PASS THIS DATA TO THE DEMF TRANSACTION PROCESSOR, 05150000
* EXECUTING IN ITS OWN SEPARATE REGION. DEMF DATA IS ACCESSED BY LINE,* 05200000
* CONTROL UNIT AND TERMINAL ADDRESSES, NOT BY SYMBOLIC. THE EASIEST WAY 05250000
* TO IMPLEMENT THIS FUNCTION IS BY IMS TRANSACTION INPUT EDIT USER EXIT 05300000
* THIS PROGRAM BEING SUCH EXIT FOR DEMF TRANSACTIONS. IF OMITTED FROM * 05350000
* THE IMS CONTROL REGION,THE ONLY EFFECT TO DEMF IS THAT EXCEPTION DATA 05400000
* WILL BE AVAILABLE ONLY BY LINE, CONTROL UNIT AND TERMINAL ADDRESSES * 05450000
* ENTERED BY THE OPERATOR.                                            * 05500000
*                                                                     * 05550000
* A SPECIAL OPERAND WILL BE ADDED TO DEMF TRANSACTION MESSAGES BY THIS* 05600000
* PROGRAM TO INDICATE THE LINE, CONTROL UNIT AND TERMINAL ADDRESS OF  * 05650000
* THE TERMINAL MAKING THE REQUEST & OF ANOTHER TERMINAL WHOSE SYMBOLIC* 05700000
* NAME IS KNOW. TRANSACTIONS MODIFIED BY THIS PROGRAM AND THE RESULTS * 05750000
* PASSED TO THE DEMF TRANSACTION PROCESSOR ARE AS FOLLOW:             * 05800000
*                                                                     * 05850000
*    TRANSACTION ENTERED:        TRANSACTION PASSED TO PROCESSOR:     * 05900000
*        DEMF 3270                   DEMF 3270 X'FF'LLLCCTT - REMOTE  * 05950000
*        DEMF 3270                   DEMF 3270 X'FF'TTT     - LOCAL   * 06000000
*        DEMF 3270 (VTAM TERMINAL)   DEMF 3270 X'FE'VTAMNAME - @OZ30477 06020007
*        DEMF 3270 SYMBNAME          DEMF 3270 SYMBNAME X'FF'LLLCCTT  * 06050000
*        DEMF 3270 SYMBNAME          DEMF 3270 SYMBNAME X'FF'TTT      * 06100000
* DEMF 3270 SYMBNAME(VTAM)    DEMF 3270 SYMBNAME X'FE'VTAMNAME @OZ30477 06120007
*        DEMF 3270 N1 N2 ...         INPUT PASSED TO DISP UNCHANGED   * 06150000
*        DEMF (29-BYTES) MENU (X'ED 3270 OPTION)                      * 06200000
*                                    DEMF 3270 X'FF'LLLCCTT - REMOTE  * 06250000
*                                    DEMF 3270 X'FF'TTT     - LOCAL   * 06300000
*                                    DEMF 3270 X'FE'VTAMNAME - @OZ30477 06304007
*                                                              @OZ30477 06308007
* THE X'FE' IS A SPECIAL INDICATOR MEANING THAT THE FOLLOWING  @OZ30477 06312007
* DATA IS:                                                     @OZ30477 06316007
*                                                              @OZ30477 06320007
*     VTAMNAME - VTAM NODE NAME                                @OZ30477 06324007
*                                                              @OZ30477 06328007
*     SINCE THERE IS NO WAY TO CONVERT AN IMS SYMBOLIC         @OZ30477 06332007
*     TERMINAL NAME TO A HARDWARE ADDRESS UNDER VTAM, THE      @OZ30477 06336007
*     VTAM NODE NAME ASSOCIATED WITH THE IMS SYMBOLIC NAME IS  @OZ30477 06340007
*     PASSED INSTEAD OF THE HARDWARE ADDRESS.                  @OZ30477 06344007
*                                                                     * 06350000
* THE X'FF' IS A SPECIAL INDICATOR MEANING THAT THE FOLLOWING DATA IS:* 06400000
*                                                                     * 06450000
*     LLL     - THE CHANNEL AND UNIT LINE ADDRESS FROM THE O/S UCB    * 06500000
*     CC & TT - THE CONTROL UNIT AND TERMINAL TP-LINE FOR REMOTE      * 06550000
*               ADDRESSING CHARACTERS FROM THE IMS CTB.               * 06600000
*                                                                     * 06650000
*     TTT     - THE TERMINAL TP-LINE FOR LOCAL USING ADDRESSING       * 06700000
*               CHARACTERS FROM THE O/S UCB.                          * 06750000
*                                                                     * 06800000
* THE SYMBOLIC DEVICE NAME MUST BE 1-8 CHARACTERS BUT IF THE NAME IS  * 06850000
*    3 CHARACTERS OR LESS, AT LEAST ONE MUST NOT BE HEX-EQUAL(0-9,A-F)* 06900000
*    OR THE USER MAY GET A SYMBOLIC CONVERSION WHEN HE MEANT TO       * 06950000
*    ENTER A HARDWARE ADDRESS.                                        * 07000000
*                                                                     * 07050000
*********************************************************************** 07100000
         EJECT                                                          07150000
BNGIEXIT CSECT                                                          07200000
*        PRINT NOGEN                                                    07250000
         USING *,BASE1             PROGRAM BASE                         07300000
         USING IECTDECB,CLBREG     IMS COMMUNICATION LINE BLOCK         07350000
         USING CNT,CNTREG          IMS COMMUNICATION NAME TABLE         07400000
         USING CTB,CTBREG          IMS COMMUNICATION TERMINAL BLOCK     07450000
         USING IHADCB,DCBREG       O/S DATA CONTROL BLOCK               07500000
         USING DEB,DEBREG          O/S DATA EXTENT BLOCK                07550000
         USING MSG,MSGREG          TRANSACTION MESSAGE SEGMENT BUFFER   07600000
         USING SCD,SCDREG          IMS SYSTEM CONTENTS DIRECTORY        07650000
         USING UCB,UCBREG          O/S UNIT CONTROL BLOCK               07700000
         SAVE  (14,12),,BNGIEXIT.DEMF.TRANSACTION.INPUT.EDIT.USER.EXIT  07750000
         LR    BASE1,R15           SET PROGRAM BASE                     07800000
BNGIEXIT BNGHJN SKIPID                                         @OZ29911 07820007
*        L     SCDREG,=V(XXXISCD)   SET IMS SCDREG                      07850000
*        L     SCDREG,0(SCDREG)                                         07900000
         L     MSGREG,DECAREA      SET MESSAGE SEGMENT BASE             07950000
         LA    MSGREG,0(MSGREG)    INSURE TOP BYTE IS ZERO              08000000
         XC    PARM1(40),PARM1     INSURE ALL PARMS ZEROS               08050000
         CLI   MSGZ2,0             MSG EDITED BY MFS OR BASIC? 0=BASIC  08100000
         BNE   MFSEDIT             BYPASS EXTENDING 10 BYTES IF MFS     08150000
*********************************************************************** 08200000
*                                                                     * 08250000
*        BASIC MSG EDIT PROCESSING                                    * 08300000
*                                                                     * 08350000
*********************************************************************** 08400000
         LA    DATAREG,MSGDATA     DATAREG = POINT TO INPUT DATA        08450000
         LH    DATALOOP,MSGLL      LOAD MSG LENGTH                      08500000
         SH    DATALOOP,=H'5'      SUBTRACT (LLZZ) + (1 FOR TR)         08550000
         EX    DATALOOP,TRNSLATE   CHANGE LOWER CASE TO UPPER CASE      08600000
         LA    DATALOOP,5(DATALOOP)   RESTORE LENGTH OF MSG             08650000
         AR    DATALOOP,MSGREG     POINT TO END OF MSG                  08700000
         BAL   LINKREG,EDITRTN     CALL EDIT ROUTINE                    08750000
         CLC   PARM2(5),=X'F3F2F7F000' IS 3270 REQUEST ?                08800000
         BNE   RETURN              NO.                                  08850000
         CLI   PARM3,X'00'         YES. IS SYMBOLIC NAME ENTERED ?      08900000
         BE    G3270               NO. FIND HDWR ADDR FOR RQSD TERM     08950000
         CLI   PARM4,X'00'         YES. ANY MORE PARMS ?                09000000
         BNE   RETURN              YES. MUST BE HDWR ADDRESSES          09050000
         L     CNTREG,SCDCNT       SET COMMUNICATION NAME TABLE         09100000
         LH    R0,SCDCNTN            POOL ADDRESS AND CNT COUNT         09150000
         OC    PARM3,=CL8' '       MASK TO BLANK ON BINARY ZEROS        09200000
CKNXTCNT CLC   PARM3,CNTNAME1       IS CNTNAME1 = REQUEST ?             09250000
         BE    CNTFOUND            SET CLB/CTB POINTERS IF EQUAL        09300000
         AH    CNTREG,SCDCNTL      MOVE TO NEXT COMM. NAME TABLE ENTRY  09350000
         BCT   R0,CKNXTCNT         KEEP CHECKING UNTILL ALL ARE CHECKED 09400000
*                                                                       09450000
RETURN   RETURN (14,12),T,RC=0          RETURN TO IMS WITH GOOD CODE    09500000
*                                                                       09550000
TRNSLATE TR    0(1,DATAREG),LOTOUP      TRANSLATE LOWER CASE TO UPPER   09600000
*                                                                       09650000
*                                                                       09700000
*********************************************************************** 09750000
*                                                                     * 09800000
*        BASIC EDIT PROCESSING FOR 3270 SYMBOLIC TERMINAL             * 09850000
*                                                                     * 09900000
*********************************************************************** 09950000
CNTFOUND L     CTBREG,CNTCTBPT     SET CTB ADDRESS FOR SYMBOLIC TERMNAL 10000000
         L     CLBREG,CTBCLB       SET CLB ADDRESS FOR SYMBOLIC TERMNAL 10050000
*********************************************************************** 10100000
*                                                                     * 10150000
*        BASIC EDIT PROCESSING FOR 3270 DEFAULT TERMINAL              * 10200000
*                                                                     * 10250000
*********************************************************************** 10300000
G3270    OC    CLBDCB,CLBDCB       IS CLBDCB = ZEROS, THEN THIS@OZ30477 10350007
*                                      IS VTAM TERMINAL REQUEST@OZ30477 10353007
         BNZ   G3270AA             NO. A BTAM TERMINAL REQUEST.@OZ30477 10356007
         LH    R1,MSGLL            LOAD MSG LENGTH             @OZ30477 10359007
         AR    R1,MSGREG           R1=POINT TO END OF MSG      @OZ30477 10362007
         MVI   0(R1),X'FE'        SET VTAM CONVERSION INDICATOR@OZ30477 10365007
         MVC   1(8,R1),CLBNAME    MOVE VTAM NODE NAME TO OUTPUT@OZ30477 10368007
         LH    R1,MSGLL            LOAD MSG LENGTH             @OZ30477 10371007
         LA    R1,9(R1)            BUMP R1=NEW BASIC LENGTH    @OZ30477 10374007
         STH   R1,MSGLL            STORE BACK NEW BASIC LENGTH @OZ30477 10377007
         B     RETURN                                          @OZ30477 10380007
G3270AA  BAL   LINKREG,CONVSYMN    CALL CONVERT SYMBOLIC RTN   @OZ30477 10383007
         CLI   PARM4,X'00'         IS SYMBOLIC NAME CONVERTED?          10400000
         BE    RETURN              NO                                   10450000
         LH    R1,MSGLL            LOAD MSG LENGTH                      10500000
         AR    R1,MSGREG           R1=POINT TO END OF MSG               10550000
         MVI   0(R1),X'FF'         SET SYMBOLIC CONVERSION INDICATOR    10600000
         MVC   1(3,R1),PARM4       MOVE HWR LINE/TERM ADDR TO OUTPUT    10650000
         UNPK  DBLWD,CTBTERM(3)    UNPACK 3 CNTRL & TERM ADDRESSES      10700000
         MVC   4(4,R1),DBLWD+3     MOVE CNTRL & TERM ADDR TO OUTPUT     10750000
         TR    4(4,R1),HXTOEB      CONVERT CNTRL & TERM ADDR TO EBCDIC  10800000
         LH    R1,MSGLL            LOAD MSG LENGTH                      10850000
         LA    R1,8(R1)            BUMP R1=NEW BASIC LENGTH             10900000
         STH   R1,MSGLL            STORE BACK NEW BASIC LENGTH          10950000
         B     RETURN                                                   11000000
*********************************************************************** 11050000
*                                                                     * 11100000
*        MFS MSG EDIT PROCESSING                                      * 11150000
*                                                                     * 11200000
*********************************************************************** 11250000
MFSEDIT  LA    DATAREG,MSGDATA        POINT TO KEY-IN AREA              11300000
         LA    DATALOOP,33            TRANSLATE FROM 'DEMF' ON TO END   11350000
*                                       OF 29-BYTE KEY-IN AREA          11400000
         EX    DATALOOP,TRNSLATE      CHANGE LOWER CASE TO UPPER CASE   11450000
         CLC   MSGKEYED,=CL29' '   WAS ANYTHING KEYED IN ?              11500000
         BNE   MFS0002             YES. GO EDIT INPUT                   11550000
         CLC   MSGCMDCD,=C'MENU'   IS INPUT FROM MENU SCREEN ?          11600000
         BNE   RETURN              NO. RETURN TO IMS                    11650000
         CLC   MSGDPRSS,=C'DEPRESS' IS THIS FROM MENU PAGE 1 ?          11700000
         BNE   RETURN              NO. RETURN TO IMS                    11750000
         CLI   MSG3270,C' '        IS THIS 3270 REQUEST FROM MENU ?     11800000
         BE    RETURN              NO. RETURN TO IMS                    11850000
         B     MFS3270             YES. GO FIND HARDWARE ADDRESS        11900000
MFS0002  LA    DATAREG,MSGKEYED    POINT TO KEYED-IN DATA               11950000
         LR    DATALOOP,DATAREG    SETUP DATA LOOP                      12000000
         LA    DATALOOP,29(DATALOOP) SET DATALOOP=END OF 29 BYTE AREA   12050000
         BAL   LINKREG,EDITRTN     CALL EDIT ROUTINE                    12100000
         CLC   PARM1(5),=X'F3F2F7F000' IS 3270 REQUEST ?                12150000
         BNE   RETURN              NO. RETURN TO IMS                    12200000
         CLI   PARM2,X'00'         YES. IS SYMBOLIC NAME ENTERED ?      12250000
         BE    MFS3270             NO. FIND HDWR ADDR FOR RQSD TERM     12300000
         CLI   PARM3,X'00'         YES. ANY MORE PARMS ?                12350000
         BNE   RETURN              YES. MUST BE HDWR ADDRESSES          12400000
         L     CNTREG,SCDCNT       SET COMMUNICATION NAME TABLE         12450000
         LH    R0,SCDCNTN            POOL ADDRESS AND CNT COUNT         12500000
         OC    PARM2,=CL8' '       MASK TO BLANK ON BINARY ZEROS        12550000
MFS0004  CLC   PARM2,CNTNAME1      IS CNTNAME1= REQUEST ?               12600000
         BE    MFS0006             SET CLB/CTB POINTERS IF EQUAL        12650000
         AH    CNTREG,SCDCNTL      MOVE TO NEXT COMM. NAME TABLE ENTRY  12700000
         BCT   R0,MFS0004          KEEP CHECKING UNTILL ALL ARE CHECKED 12750000
         B     RETURN              NO MATCH TO IMS SYMBOLICS, SO RETURN 12800000
*********************************************************************** 12850000
*                                                                     * 12900000
*        MFS EDIT PROCESSING FOR 3270 SYMBOLIC TERMINAL               * 12950000
*                                                                     * 13000000
*********************************************************************** 13050000
MFS0006  L     CTBREG,CNTCTBPT     SET CTB ADDRESS FOR SYMBOLIC TERMNAL 13100000
         L     CLBREG,CTBCLB       SET CLB ADDRESS FOR SYMBOLIC TERMNAL 13150000
*********************************************************************** 13200000
*                                                                     * 13250000
*        MFS EDIT PROCESSING FOR 3270 DEFAULT TERMINAL                * 13300000
*                                                                     * 13350000
*********************************************************************** 13400000
MFS3270  OC    CLBDCB,CLBDCB     IS CLBDCB = ZEROS, THEN THIS  @OZ30477 13450007
*                                   IS A VTAM TERMINAL REQUEST.@OZ30477 13453007
         BNZ   MFS0008             NO. A BTAM TERMINAL REQUSET.@OZ30477 13456007
         LA    R1,MSGKEYED   SET R1=ADDR OF 29 BYTE KEY-IN AREA@OZ30477 13459007
         MVC   MSGKEYED,=CL29' '   CLEAR KEY-IN AREA           @OZ30477 13462007
         MVC   0(5,R1),=C'3270 '   MOVE '3270 ' TO 29 BYTE AREA@OZ30477 13465007
         LA    R1,5(R1)            PRESET 'R1' PASS '3270 '    @OZ30477 13468007
         CLI   PARM2,X'00'         IS SYMBOLIC NAME IN PARM2 ? @OZ30477 13471007
         BE    MFS0005             NO. JUST ADD VTAM NAME      @OZ30477 13474007
         MVC   5(8,R1),PARM2      YES. ADD SYMBOLIC NAME TO MSG@OZ30477 13477007
         LA    R1,13(R1)        POINT PASS '3270 ' AND SYMBOLIC@OZ30477 13480007
MFS0005  MVI   0(R1),X'FE'        SET VTAM CONVERSION INDICATOR@OZ30477 13483007
         MVC   1(8,R1),CLBNAME    MOVE VTAM NODE NAME TO OUTPUT@OZ30477 13486007
         B     RETURN                                          @OZ30477 13489007
MFS0008  BAL   LINKREG,CONVSYMN   CALL CONVERT SYMBOLIC ROUTINE@OZ30477 13492007
         CLI   PARM4,X'00'         IS SYMBOLIC NAME CONVERTED?          13500000
         BE    RETURN              NO                                   13550000
         LA    R1,MSGKEYED         SET R1=ADDR OF 29 BYTE KEY-IN AREA   13600000
         MVC   MSGKEYED,=CL29' '   CLEAR KEY-IN AREA                    13650000
         MVC   0(5,R1),=C'3270 '    MOVE '3270 ' TO 29 BYTE AREA        13700000
         LA    R1,5(R1)            PRESET 'R1' PASS '3270 '             13750000
         CLI   PARM2,X'00'         IS SYMBOLIC NAME IN PARM2 ?          13800000
         BE    MFS0010             NO. JUST ADD HARDWARE ADDRESSES      13850000
         MVC   5(8,R1),PARM2       YES. ADD SYMBOLIC NAME TO MSG        13900000
         LA    R1,13(R1)           POINT PASS '3270 ' AND SYMBOLICNAME  13950000
MFS0010  MVI   0(R1),X'FF'         SET SYMBOLIC CONVERSION INDICATOR    14000000
         MVC   1(3,R1),PARM4       MOVE HWR LINE/TERM ADDR TO OUTPUT    14050000
         UNPK  DBLWD,CTBTERM(3)    UNPACK 3 CNTRL & TERM ADDRESSES      14100000
         MVC   4(4,R1),DBLWD+3     MOVE CNTRL & TERM ADDR TO OUTPUT     14150000
         TR    4(4,R1),HXTOEB      CONVERT CNTRL & TERM ADDR TO EBCDIC  14200000
         B     RETURN                                                   14250000
*********************************************************************   14300000
*                                                                   *   14350000
*        INPUT EDITING SUBROUTINE FOR BOTH BASIC AND MFS MSG        *   14400000
*                                                                   *   14450000
*********************************************************************   14500000
EDITRTN  LA    PARMREG,PARM1       POINT TO PARMS.                      14550000
         LR    R1,PARMREG                                               14600000
         MVI   NEWPARM,C'1'        TURN ON 'NEW PARM' SWITCH.           14650000
EDIT001  CLI   0(DATAREG),C'A'     IS IT AN 'A' OR HIGHER?              14700000
         BL    EDIT004             NO. CHECK NEW PARM SWITCH.           14750000
         MVI   NEWPARM,C'0'        YES. SET NEW PARM SWITCH OFF.        14800000
         MVC   0(1,R1),0(DATAREG)  PUT THIS BYTE IN THIS PARM           14850000
         CLI   PARM5,X'00'         ARE ALL PARMS USED UP?               14900000