 TITLE 'BNGLOGER - MVS LOGGER MODULE - WRITES TO SYS1.DEMFLOG D.S.'     00050007
         PRINT OFF                                                      00100007
         MACRO                                                          00100407
&NAME    BNGHJN &LABEL,&HJN                                             00100807
         LCLC  &HJA,&HJB                                                00101207
&HJA     SETC  '&SYSPARM'(1,4)                                          00101607
&HJB     SETC  '&SYSPARM'(5,4)                                          00102007
         AIF   ('&LABEL' EQ '').NOBRNCH                                 00102407
         B     &LABEL .                 BR AROUND CONSTANTS             00102807
         SPACE 2                                                        00103207
.NOBRNCH ANOP                                                           00103607
         AIF   ('&NAME' EQ '').NOLABEL                                  00104007
         DC    C'&NAME' .              MODULE IDENTIFIER                00104407
.NOLABEL ANOP                                                           00104807
         DC    X'&HJA' .                DATE OF MODIFICATION            00105207
         AIF   ('&HJN' NE 'HJN').DATE                                   00105607
         DC    X'&HJB' .                HJN OF MODIFICATION             00106007
.DATE    ANOP                                                           00106407
         AIF   ('&LABEL' EQ '').NOLBL                                   00106807
         SPACE 2                                                        00107207
&LABEL   DS    0H                                                       00107607
.NOLBL   ANOP                                                           00108007
         MEND                                                           00108407
         PRINT ON                                                       00108807
*********************************************************************** 00109207
*                                                                     * 00150007
* MODULE NAME = BNGLOGER                                              * 00200007
*                                                                     * 00250007
* DESCRIPTIVE NAME = MVS LOGGER FUNCTION OF DEMF RECORDING SUSBSYSTEM * 00300007
*                                                                     * 00350007
* COPYRIGHT = NONE                                                    * 00400007
*                                                                     * 00450007
* STATUS = RELEASE 1, LEVEL 1                                         * 00500007
*                                                                     * 00550007
* FUNCTION =   THIS MODULE IS PART OF THE DISPLAY EXCECPTION MONITOR. * 00600007
*              FACILITY.  IT RUNS AS A SYSTEM TASK THAT IS STARTED    * 00650007
*              FROM THE OPERATOR CONSOLE.  IT IS POSTED BY THE LOGREC * 00700007
*              RECORDER MODULE, SVC 76, AND WILL WRITE TO THE DEMF    * 00750007
*              DATA SET, RECORDS WHICH HAVE BEEN QUEUED IN A BUFFER   * 00800007
*              AREA BY THE SVC 76 ROUTINE.  THESE RECORDS ARE TELE-   * 00850007
*              PROCESSING MDR AND OBR RECORDS WHICH WILL LATER BE     * 00900007
*              RETRIEVED, FORMATTED, AND SENT TO A REMOTE TERMINAL    * 00950007
*              WHICH HAS MADE A REQUEST FOR INFORMATION ABOUT THE     * 01000007
*              ERROR ACTIVITY  FOR A GIVEN LINE OR LINES.  THIS       * 01050007
*              MODULE DOES NOT HANDLE THE RETRIEVAL AND FORMATTING    * 01100007
*              FUNCTIONS.  WHEN POSTED, IT WILL DETERMINE WHICH       * 01150007
*              BUFFER OR BUFFERS HAVE BEEN FILLED , AND WILL WRITE    * 01200007
*              THEM OUT TO THE DEMF DATA SET.  THE RECORDS ARE GROUPED* 01250007
*              ACCORDING TO LINE ADDRESS, AND WRITTEN TO A BDAM DATA  * 01300007
*              SET.  AFTER COMPLETION OF THE WRITE, THE MODULE WILL   * 01350007
*              ISSUE A WAIT  ON AN ECB WHICH WILL BE POSTED BY SVC 76 * 01400007
*              WHEN IT HAS AGAIN FILLED A BUFFER.                     * 01450007
*              THIS MODULE ALSO INITIALIZES THE COMMON DATA AREA IN   * 01500007
*              THE NUCLEUS  WITH THE BUFFER AREA ADDRESS AND SETS A   * 01550007
*              FLAG TO BE TESTED BY SVC 76 TO DETERMINE IF DEMF IS    * 01600007
*              ACTIVE.  A GETMAIN IS DONE FOR A BUFFER AREA.  IF ANY  * 01650007
*              ERROR CONDITIONS ARE ENCOUNTERED, A MESSAGE WILL BE    * 01700007
*              ISSUED AND THE STAE ROUTINE IS ENTERED TO RESET SYSTEM * 01750007
*              FLAGS AND TERMINATE LOGGING.                           * 01800007
*                                                                     * 01850007
* NOTES = NONE                                                        * 01900007
*                                                                     * 01950007
*    DEPENDENCIES = NONE                                              * 02000007
*                                                                     * 02050007
*    RESTRICTIONS = NONE                                              * 02100007
*                                                                     * 02150007
*    REGISTER CONVENTIONS = SEE REGISTERS EQU'S BELOW                 * 02200007
*                                                                     * 02250007
*    PATCH LABEL = PTCHAREA  (12 FULL WORDS)                          * 02300007
*                                                                     * 02350007
* MODULE TYPE = CONTROL                                               * 02400007
*                                                                     * 02450007
*    PROCESSOR = ASSEMBLER H                                          * 02500007
*                                                                     * 02550007
*    MODULE SIZE = 11920 DECIMAL BYTES                                * 02600007
*                                                                     * 02650007
*    ATTRIBUTES = SERIALLY REUSABLE                                   * 02700007
*                                                                     * 02750007
* ENTRY POINT = BNGLOGER                                              * 02800007
*                                                                     * 02850007
*    PURPOSE = SEE FUNCTION                                           * 02900007
*                                                                     * 02950007
*    LINKAGE = START COMMAND FROM SYSTEM OPERATOR.                    * 03000007
*              POST MACRO ISSUED BY IFBSVC76 ROUTINE (SVC 76).        * 03050007
*                                                                     * 03100007
* INPUT = ONE OR MORE INCIDENT RECORDS QUEUED IN THE BUFFER AREA,     * 03150007
*         AND THE CORRESPONDING BYTE IN THE BUFFER TABLE HAVING ITS   * 03200007
*         HIGH ORDER BIT SET TO ONE.                                  * 03250007
*                                                                     * 03300007
* OUTPUT = DEPENDING ON THE INPUT, ZERO, ONE OR MORE RECORDS WRITTEN  * 03350007
*          TO THE SYS1.DEMFLOG DATA SET.                              * 03400007
*                                                                     * 03450007
* EXIT-NORMAL = REGISTER 15 RETURN CODES RETURNED TO CALLER :         * 03500007
*               00 - OPERATION PERFORMED AS REQUESTED                 * 03550007
*                                                                     * 03600007
* EXIT-ERROR = NONE                                                   * 03650007
*                                                                     * 03700007
* EXTERNAL REFERENCE = SEE BELOW                                      * 03750007
*                                                                     * 03800007
*    ROUTINES = NONE                                                  * 03850007
*                                                                     * 03900007
*    DATA AREAS = BUFFER AREA USED BY IFBSVC76 AND BNGLOGER.          * 03950007
*                                                                     * 04000007
*    CONTROL BLOCK = CVT,IFBDCB00                                     * 04050007
*                                                                     * 04100007
* TABLES = CTRLTBL  - USED BY TRT IN IFBSVC76 TO FIND FREE BUFFER     * 04150007
*          BUFFTBL  - USED BY TRT IN IFBSVC76 TO FIND FREE BUFFER     * 04200007
*                                                                     * 04250007
* MACROS = CVT,DCB,GETMAIN,FREEMAIN,ESTAE,ENQ,DEQ,OPEN,CLOSE,WTO,WTOR,* 04300007
*          WAIT,READ,WRITE,CHECK,TIME,IHAPSA,MODESET.                 * 04350007
*                                                                     * 04400007
* CHANGE ACTIVITIES AS FOLLOWS:                                       * 04450007
* CHANGE 01  11/15/77  PROLOGUE ADDED                                 * 04450107
* CHANGE 02  02/24/78  BNGHJN MACRO ADDED                             * 04450207
*C200500                                                       @OZ29853 04450307
*A078000,178500,183500                                         @OZ29853 04450407
*A074500,157000,157500,163000                                  @OZ29866 04450507
*C149500,153500,377000,378500                                  @OZ29866 04450607
*                                                                     * 04550007
*********************************************************************** 04600007
         EJECT                                                          04650007
********                *****   REGISTER EQUATES   ****           ****  04700007
R0       EQU   0                       REGISTER 0                       04750007
R1       EQU   1                       REGISTER 1                       04800007
R2       EQU   2                       REGISTER 2                       04850007
R3       EQU   3                       REGISTER 3                       04900007
R4       EQU   4                       REGISTER 4                       04950007
R5       EQU   5                       REGISTER 5                       05000007
R6       EQU   6                       REGISTER 6                       05050007
R7       EQU   7                       REGISTER 7                       05100007
R8       EQU   8                       REGISTER 8                       05150007
R9       EQU   9                       REGISTER 9                       05200007
R10      EQU   10                      REGISTER 10                      05250007
R11      EQU   11                      REGISTER 11                      05300007
R12      EQU   12                      REGISTER 12                      05350007
R13      EQU   13                      REGISTER 13                      05400007
R14      EQU   14                      REGISTER 14                      05450007
R15      EQU   15                      REGISTER 15                      05500007
*                                                                       05550007
SAVEREG  EQU   13                      SAVE AND CONSTANT AREA REG.      05600007
BASEREG  EQU   12                      MODULE BASE REG.                 05650007
BUFFREG  EQU   11                      DEMF BUFFER AREA REG.            05700007
CVTREG   EQU   3                       CVT BASE REG.                    05750007
RETREG   EQU   14                      RETURN REGISTER                  05800007
ENTREG   EQU   15                      ENTRY REGISTER                   05850007
IFBREG   EQU   10                      IFBDCB NUCLEUS CSECT REGISTER.   05900007
DATAREG  EQU   8                       RECORD POINTER REGISTER.         05950007
LINKREG  EQU   2                       LINKAGE REGISTER.                06000007
BASERG2  EQU   6                       SECOND BASE REGISTER.            06050007
SLOTREG  EQU   3                                                        06100007
BCTREG   EQU   4                                                        06150007
*                                                                       06200007
*                                                                       06250007
*                                                                       06300007
********                 ***** MISCELLANEOUS EQUATES *****              06350007
         CVT   DSECT=YES                                                06400007
         PRINT NOGEN                                                    06450007
         IHAPSA                                                         06500007
         PRINT GEN                                                      06550007
*                                                                       06600007
DCBDISP  EQU   16                      LOGREC DCB DISP. IN IFBDCB CSECT 06650007
OPENBIT  EQU   16                      DCB OPEN BIT.                    06700007
DCBOFLGS EQU   48                      DISP IN DCB TO OPEN FLAGS.       06750007
         SPACE 2                                                        06800007
ONE      EQU   1                   FOR DISPLACEMENT                     06850007
TWO      EQU   2                   FOR DISPLACEMENT                     06900007
EIGHT    EQU   8                   FOR DISPLACEMENT                     06950007
TWEL     EQU   12                  FOR DISPLACEMENT                     07000007
PRESIZE  EQU   7                   PREFIX LENGTH OF DEMFILE RECORD      07050007
MDR      EQU   X'91'               MDR RECORD TYPE                      07100007
OBRBT    EQU   X'30'               OBR - BTAM RECORD TYPE               07150007
OBRTC    EQU   X'34'               OBR - TCAM RECORD TYPE               07200007
DDIDISP  EQU   64                  DISP IN LONG OBR TO DEV DEP INFO     07250007
ZERO     EQU   0                                                        07300007
M3270EP  EQU   X'03'               MDR 3270 EP MODE                     07350007
OBRNA1   EQU   X'E0'               UNWANTED OBRS: SDR CTRS,TEMP,SHORT   07400007
OBRNA2   EQU   X'60'               UNWANTED OBRS: CTR OVFLO, EOD        07450007
OBRCCTT  EQU   X'01'          OBR TCAM 3270 SW; ON IF CC/TT    @OZ29866 07455007
*                             VALID                            @OZ29866 07460007
ODEVCOM  EQU   X'40'          OBR DEVICE CLASS = COMMUNICATONS @OZ29866 07465007
ODEVUNT2 EQU   X'90'          OBR UNIT TYPE = SYNC ADAPT TYP 2 @OZ29866 07470007
ODEVNOT2 EQU   X'60'          OBR UNIT TYPE=NOT SYNC ADAP 2    @OZ29866 07475007
ODEVMOD3 EQU   X'07'          OBR MODEL BITS = BISYNCH 3       @OZ29866 07480007
ODEVNOT3 EQU   X'08'          OBR MODEL BITS = NOT BISYNCH 3   @OZ29866 07485007
BTAMSYN  EQU   X'32'          OBR BTAM CONTROL CHARACTER: SYN  @OZ29866 07490007
         EJECT                                                          07500007
BNGLOGER CSECT                                                          07550007
*                                                                       07600007
         STM   R14,R12,12(R13)         SAVE REGISTERS.                  07650007
         LR    R12,R15                 LOAD FIRST BASE REG.             07700007
         USING BNGLOGER,BASEREG,BASERG2  NOTIFY ASM OF BASE REGS.       07750007
*                                                                       07800007
BNGLOGR2 BNGHJN SKIPID                                         @OZ29853 07820007
         LA    BASERG2,BNGLOGER+4095     INITIALIZE                     07850007
         LA    BASERG2,1(BASERG2)      SECOND BASE REGISTER.            07900007
***                                                                     07950007
         GETMAIN   R,LV=96,SP=0        GET STORAGE FOR SAVE AREA.       08000007
***                                                                     08050007
         ST    SAVEREG,4(R1)           PERFORM SAVE AREA CHAINING.      08100007
         ST    R1,8(SAVEREG)           POINT LSA TO HSA.                08150007
         LR    SAVEREG,R1              R13 NOW POINTS TO NEW SAVE.      08200007
         USING SAVE,SAVEREG            EST. ADDRESSABILITY.             08250007
***                                                                     08300007
         GETMAIN   R,LV=4096,SP=241    GET BUFFER AREA STORAGE.         08350007
***                                                                     08400007
         LR    BUFFREG,R1              POINT BUFFREG TO BUFF AREA.      08450007
         USING BUFFER,BUFFREG      SET UP BUFFER ADDRESSABILITY         08500007
         SPACE 2                                                        08550007
*  INITIALIZATION OF BUFFER CONTROL AREA                                08600007
         SPACE 2                                                        08650007
         MVI   BUFFLAG1,ZERO       CLEAR FLAG1                          08700007
         MVI   BUFFLAG2,ZERO       CLEAR FLAG2                          08750007
         SPACE 2                                                        08800007
*                                                                       08850007
*****              LOCATE IFBDCB CSECT IN NUCLEUS AND INITIALIZE  ****  08900007
*****              CONSTANTS IN THE DEMF AREA.                    ****  08950007
*                                                                       09000007
         L     CVTREG,CVTPTR       FIND CVT                             09050007
         USING CVTMAP,CVTREG       ESTABLISH CVT ADDRESSABILITY         09100007
         L     IFBREG,CVTDCB       GET POINTER TO LOGREC DCB            09150007
         DROP  CVTREG                                                   09200007
         LA    CVTREG,DCBDISP      DISP OF LOGREC DCB IN IFBDCB00       09250007
         SR    IFBREG,CVTREG       POINT TO START OF MODULE             09300007
         USING IFBDCB,IFBREG           ESTABLISH DSECT ADDRESSABILITY   09350007
         SPACE 1                                                        09400007
         STM   IFBREG,BASEREG,ESTAEP    SAVE REGS A,B,C                 09450007
         ST    BASERG2,ESTAEP+TWEL      SAVE REG 6                      09500007
         ESTAE STAERTN,CT,PARAM=ESTAEP,XCTL=NO,PURGE=QUIESCE,ASYNCH=YESX09550007
               ,TERM=YES                                                09600007
         SPACE 1                                                        09650007
         MODESET KEY=ZERO          PROTECT KEY ZERO                     09700007
         TS    IFBFLGS1            IS DEMF ALREADY ACTIVE?(TEST HI BIT) 09750007
         BC    4,REJECT                YES, CAN'T HAVE ANOTHER          09800007
         SPACE 1                                                        09850007
         ST    BUFFREG,IFBBUFP         ST BUFF AREA PTR IN COMM AREA    09900007
         MVC   BUFBYTES(L'BUFFTBL),BUFFTBL  BUSY BYTES TO COMM AREA     09950007
         SPACE 1                                                        10000007
         LA    R7,PRESIZE          INIT PREFIX SIZE                     10050007
         STH   R7,BUFPRESZ         STORE IN BUFFER CONTROL              10100007
         LA    R7,BUFECB               POINT TO DEMF TASK ECB.          10150007
         ST    R7,ECBPTR               INIT. ECB LIST.                  10200007
         SPACE 1                                                        10250007
         USING PSA,0                                                    10300007
         MVC   IFBASCBP,PSAAOLD    MOVE ASCB PTR INTO DCB EXTENSION     10350007
         MODESET KEY=NZERO         PROTECTION KEY TCB                   10400007
         SPACE 2                                                        10450007
***                                                                     10500007
         OPEN  (LOGDCB,UPDAT)          OPEN DEMF DATA SET               10550007
***                                                                     10600007
         TM    LOGDCB+DCBOFLGS,OPENBIT DCB OPENED O.K.?                 10650007
         BZ    ERROPEN                 BR IF NO TO ERROR RTN.           10700007
***                                                                     10750007
         WTOR  'BNG900A DEMF ACTIVE. REPLY ''END DEMF'' TO TERMINATE.',X10800007
               REPLY,8,STOPECB,ROUTCDE=(1)                              10850007
***                                                                     10900007
WAITLOG  EQU   *                                                        10950007
         XC    BUFECB(4),BUFECB        CLEAR ECB FOR WAIT.              11000007
*   RESET ALL WTO ERROR FLAGS                                           11050007
         NI    BUFFLAG1,FOXS-(BUFBIGRC+BUFBIGRW+BUFBFULL+BUFBFULW)      11100007
WAIT2    EQU   *                                                        11150007
***                                                                     11200007
         WAIT  ECBLIST=ECBPTR          WAIT FOR SVC 76 POST.            11250007
***                                                                     11300007
         TM    STOPECB,X'40'       DID OPER REQUEST END?                11350007
         BO    CHEKSTOP            BR IF YES TO TEST REPLY.             11400007
*********************************************************************** 11450007
*                                                                     * 11500007
*              THE FOLLOWING CODE FINDS THE BUFFERS FILLED BY SVC     * 11550007
*              76 AND BRANCHES TO THE BDAM WRITE ROUTINE PUT          * 11600007
*              THE RECORD IN ITS 'BUCKET'.  AFTER THIS, THE BUFFER    * 11650007
*              TABLE IS SEARCHED AGAIN, IN CASE ANOTHER BUFFER WAS    * 11700007
*              FILLED DURING THE TIME WE WERE EXECUTING .  A NO-HIT   * 11750007
*              TABLE SEARCH RESULTS IN A WAIT FOR ANOTHER POST.       * 11800007
*                                                                     * 11850007
*********************************************************************** 11900007
*                                                                       11950007
FINDBUF  EQU   *                                                        12000007
         SR    R1,R1                   ZERO REGISTERS FOR               12050007
         SR    R2,R2                   TRT INSTRUCTION.                 12100007
***                                                                     12150007
         LA    R3,BUFBYTES             POINT TO BUSY BYTES              12200007
         TRT   ZERO(BUFFS,R3),CTRLTBL     SEARCH FOR ACTIVE BUFFER.     12250007
***                                                                     12300007
         BC    8,WAITLOG               NO ACTIVE ENTRIES, GO WAIT.      12350007
         BC    4,BUFOUND               BR IF BUFFER FOUND.              12400007
         MVI   EOTIND,X'FF'            INDICATE BUFFER FOUND IS LAST.   12450007
BUFOUND  EQU   *                                                        12500007
         SPACE 2                                                        12550007
*  MESSAGE HANDLER                                                      12600007
         SPACE 2                                                        12650007
         ST    R1,CURRBUF          SAVE CURRENT BUFFER PTR              12700007
         TM    BUFFLAG1,BUFNOLOG+BUFBIGRC+BUFBFULL ANY ON?              12750007
         BZ    NOMSG                                                    12800007
         SPACE 2                                                        12850007
         TM    BUFFLAG1,BUFNOLOG+BUFNOLGW   LOGREC RECORDING            12900007
         BC    9,SKIP1             SKIP IF BOTH OR NEITHER BIT ON       12950007
         WTO   'BNG907I SYS1.LOGREC RECORDING OF DEMF RECORDS INHIBITEDX13000007
               .',ROUTCDE=(2)                                           13050007
         OI    BUFFLAG1,BUFNOLGW   INHIBIT WTO SECOND TIME              13100007
SKIP1    EQU   *                                                        13150007
         TM    BUFFLAG1,BUFBIGRC+BUFBIGRW    RECORD TOO BIG             13200007
         BC    9,SKIP2             SKIP IF BOTH OR NEITHER BIT ON       13250007
         WTO   'BNG908I SYS1.LOGREC RECORD(S) TOO BIG FOR DEMF BUFFER. X13300007
               RECORD(S) LOST.',ROUTCDE=(2)                             13350007
         OI    BUFFLAG1,BUFBIGRW   INHIBIT WTO SECOND TIME              13400007
SKIP2    EQU   *                                                        13450007
         TM    BUFFLAG1,BUFBFULL+BUFBFULW    BUFFERS FULL               13500007
         BC    9,NOMSG             SKIP IF BOTH OR NEITHER BIT ON       13550007
         WTO   'BNG909I DEMF BUFFERS FULL. RECORD(S) LOST.',ROUTCDE=(2) 13600007
         OI    BUFFLAG1,BUFBFULW   INHIBIT WTO SECOND TIME              13650007
NOMSG    EQU   *                                                        13700007
         SPACE 2                                                        13750007
*  TEST FOR ACCEPTABLE INPUT RECORD TYPES                               13800007
         SPACE 2                                                        13850007
         L     R1,CURRBUF          POINT TO BUFFER BYTE TABLE HIT       13900007
         LR    DATAREG,R2              LOAD BUFF DISP IN MULTIPLIER.    13950007
         MH    DATAREG,BUFSIZE         REG2 INDEX CONTAINS BUFF NO.     14000007
         SH    DATAREG,BUFSIZE         DECREMENT TO CONV TO DISP.       14050007
         AR    DATAREG,BUFFREG         REG8 NOW POINTS TO ACTIVE BUFF.  14100007
         USING BTCAM,DATAREG       DSECT ADDRESSABILITY                 14150007
         CLI   BTTYPE,MDR          MDR RECORD TYPE?                     14200007
         BNE   OBR1                NO, TEST FOR OBR                     14250007
         SPACE 2                                                        14300007
* HERE FOR MDR TYPE                                                     14350007
         CLI   MDRSWTCH,M3270EP    3270 EP MODE?                        14400007
         BE    RECOK               YES, PROCESS IT                      14450007
         B     COMPL               NO, TERMINATE PROCESSING THIS RECORD 14500007
         SPACE 2                                                        14550007
OBR1     EQU   *                                                        14600007
         TM    BTSWTCH,OBRNA1      ANY UNWANTED OBR TYPES?              14650007
         BC    5,COMPL             YES, TERMINATE PROCESSING THIS       14700007
         SPACE 2                                                        14750007
*  HERE OBR RECORDS                                                     14800007
         SPACE 2                                                        14850007
* COMMON BTAM-TCAM PROCESSING                                           14900007
         LA    R7,DDIDISP+PRESIZE(DATAREG)  POINT TO DEV DEP   @OZ29866 14950007
*                                           INFORMATION        @OZ29866 14960007
         SR    R9,R9               CLEAR WORK REG                       15000007
         IC    R9,BTDDDWD          DEV DEP DATA LENGTH (IN DWORDS)      15050007
         SLL   R9,3                MULT BY 8 TO GET BYTES               15100007
         LA    R7,0(R7,R9)         ADDR PAST DEV DEP DATA               15150007
         SR    R9,R9               CLEAR WORK REG                       15200007
         IC    R9,BTSDRCT          GET STAT BYTE COUNT                  15250007
         LA    R7,0(R7,R9)         ADDR OF SENSE BYTES                  15300007
         MVC   BTPOLL,BTCCTT       MOVE POLLING CHARS IN OBR   @OZ29866 15350007
         SPACE 2                                                        15400007
* OBR-BTAM PROCESSING FOR COMMON DISPLAY FORMAT                         15450007
         CLI   BTTYPE,OBRBT        OBR-BTAM RECORD TYPE?                15500007
         BNE   OBR2                NO, TEST FOR OBR-TCAM                15550007
         MVC   BTSENSE1,ZERO(R7)   MOVE TO SENSE 1 FROM CALC. ADDR.     15600007
         MVC   BTBTOP,ONE(R7)      MOVE BTAM OP CODE                    15650007
         MVI   BTSENSE2,ZERO       CLEAR SENSE BYTE 2                   15700007
         SPACE 2                                               @OZ29866 15701007
*    TEST DEVICE TYPE FIELD IN OBR FOR BISYNCH 3 DEVICES.      @OZ29866 15702007
*    IF ALL TESTS OK, THEN CHECK CC IN BTCCTT (BTPOLL)         @OZ29866 15703007
         SPACE 1                                               @OZ29866 15704007
         CLI   BTDEVTP2,ODEVCOM    OBR DEV TYPE=COMMUNICATONS? @OZ29866 15705007
         BNE   OBR12               NO, SET F'S                 @OZ29866 15706007
         TM    BTDEVTP3,ODEVUNT2   OBR UNIT TYPE=SYNC ADAPT 2? @OZ29866 15707007
         BNO   OBR12               NO, SET F'S                 @OZ29866 15708007
         TM    BTDEVTP3,ODEVNOT2   OBR UNIT OTHER THAN SYN 2?  @OZ29866 15709007
         BNZ   OBR12               YES, SET F'S                @OZ29866 15710007
         TM    BTDEVTP0,ODEVMOD3   OBR MODEL BITS = BISYNCH 3? @OZ29866 15711007
         BNO   OBR12               NO, SET F'S                 @OZ29866 15712007
         TM    BTDEVTP0,ODEVNOT3   OBR MODEL BITS OTHER THAN   @OZ29866 15713007