         PRINT OFF                                                      00050007
         MACRO                                                          00050407
&NAME    BNGHJN &LABEL,&HJN                                             00050807
         LCLC  &HJA,&HJB                                                00051207
&HJA     SETC  '&SYSPARM'(1,4)                                          00051607
&HJB     SETC  '&SYSPARM'(5,4)                                          00052007
         AIF   ('&LABEL' EQ '').NOBRNCH                                 00052407
         B     &LABEL .                 BR AROUND CONSTANTS             00052807
         SPACE 2                                                        00053207
.NOBRNCH ANOP                                                           00053607
         AIF   ('&NAME' EQ '').NOLABEL                                  00054007
         DC    C'&NAME' .              MODULE IDENTIFIER                00054407
.NOLABEL ANOP                                                           00054807
         DC    X'&HJA' .                DATE OF MODIFICATION            00055207
         AIF   ('&HJN' NE 'HJN').DATE                                   00055607
         DC    X'&HJB' .                HJN OF MODIFICATION             00056007
.DATE    ANOP                                                           00056407
         AIF   ('&LABEL' EQ '').NOLBL                                   00056807
         SPACE 2                                                        00057207
&LABEL   DS    0H                                                       00057607
.NOLBL   ANOP                                                           00058007
         MEND                                                           00058407
         PRINT ON                                                       00058807
*********************************************************************** 00059207
*                                                                     * 00100000
* MODULE NAME = BNGTDISP                                              * 00150000
*                                                                     * 00200000
* DESCRIPTIVE NAME = TCAM DEMF DISPLAY CONTROL MODULE                 * 00250000
*                                                                     * 00300000
* COPYRIGHT = NONE                                                    * 00350000
*                                                                     * 00400000
* STATUS = RELEASE 1, LEVEL 1                                         * 00450000
*                                                                     * 00500000
* FUNCTION = 1) EDITS THE INPUT INTO 6 PARM FIELDS WITH LEFT JUSTIFY; * 00550000
*            2) DOES SYNTAX CHECK ON DEMF COMMANDS AND PARAMETERS;    * 00600000
*            3) DETERMINES WHETHER THE REQUEST IS FOR MENU,REMOTE,    * 00650000
*               LOCAL OR 3270 SCREEN ERROR DISPLAY AND PASSES CONTROL * 00700000
*               TO BNGTMENU,BNGTRMOT,BNGTLOCL OR BNGT3270 SEGMENT     * 00750000
*               ACCORDINGLY WITH PARAMETERS;                          * 00800000
*            4) HANDLES ALL,LINE AND CTRL ERROR DISPLAY REQUEST AND   * 00850000
*               WRITES ITS ERROR INFORMATION TO THE 3270 DISPLAY      * 00900000
*               TERMINAL AND ISSUES SOME OF THE DISPLAY MESSAGES;     * 00950000
*            5) ACCESSES SYS1.DEMFLOG DATA FILE FOR ALL,LINE AND CTRL * 01000000
*               ERROR DISPLAY REQUEST.                                * 01050000
*                                                                     * 01100000
* NOTES = NONE                                                        * 01150000
*                                                                     * 01200000
*    DEPENDENCIES = NONE                                              * 01250000
*                                                                     * 01300000
*    RESTRICTIONS = NONE                                              * 01350000
*                                                                     * 01400000
*    REGISTER CONVENTIONS = R10 RECEIVES ADDRESS OF I/O MESSAGE AREA  * 01450000
*                           FROM BNGTQEMF                             * 01500000
*                                                                     * 01550000
*    PATCH LABEL = NONE                                               * 01600000
*                                                                     * 01650000
* MODULE TYPE = TCAM DISPLAY CONTROL                                  * 01700000
*                                                                     * 01750000
*    PROCESSOR = ASSEMBLER H                                          * 01800000
*                                                                     * 01850000
*    MODULE SIZE = 9821 DECIMAL BYTES                                 * 01900000
*                                                                     * 01950000
*    ATTRIBUTES = SERIALLY REUSABLE                                   * 02000000
*                                                                     * 02050000
* ENTRY POINT = BNGTDISP                                              * 02100000
*                                                                     * 02150000
*    PURPOSE = SEE FUNCTION                                           * 02200000
*                                                                     * 02250000
*    LINKAGE = R1  LOADED WITH THE PARAM LIST POINTER                 * 02300000
*              R14 LOADED WITH THE RETURN ADDR (USED BY SUBROUTINE)   * 02350000
*              R15 LOADED WITH ENTRY POINT                            * 02400000
*                                                                     * 02450000
* INPUT = PARAM LIST ITEMS USED ARE :                                 * 02500000
*         IN MESSAGE ADDRESS  = TCAMFLDS (R10)                        * 02550000
*         IN MESSAGE COUNT    = VARIABLE (MAXIMUM=117 BYTES)          * 02600000
*                                                                     * 02650000
* OUTPUT = PARAM LIST ITEMS USED ARE :                                * 02700000
*         OUT MESSAGE ADDRESS = TIOADBAO (R10)                        * 02750000
*         OUT MESSAGE COUNT   = VARIABLE (MAXIMUM=2008 BYTES)         * 02800000
*                                                                     * 02850000
* EXIT-NORMAL = REGISTER 15 RETURN CODE RETURNED TO CALLER :          * 02900000
*               00 - OPERATION PERFORMED AS REQUESTED                 * 02950000
*                                                                     * 03000000
* EXIT-ERROR  = SYNAD ROUTINE AT LABEL - F190                         * 03050000
*                                                                     * 03100000
* EXTERNAL REFERENCE = BNGTLOCL,BNGTRMOT,BNGTMENU AND BNGT3270        * 03150000
*                                                                     * 03200000
*    ROUTINES = LOCATE ROUTINE                                        * 03250000
*               MOD1SCAN ROUTINE                                      * 03300000
*               MOD1 TABLE BUILD (AT LABEL S215) ROUTINE              * 03350000
*                                                                     * 03400000
*    DATA AREAS = SEE INPUT AND OUTPUT ABOVE                          * 03450000
*                                                                     * 03500000
*    CONTROL BLOCK = DCB (AT LABEL EMFILE)                            * 03550000
*                                                                     * 03600000
* TABLES = TABLE    - FUNCTION/COMPANION TABLE                        * 03650000
*          MOD1TAB  - 3277 MODEL 1 TABLE                              * 03700000
*          HXTOEB   - HEX CHARS TO EBCDIC CHARS TABLE                 * 03750000
*          EBTOHX   - EBCDIC CHARS TO HEX CHARS TABLE                 * 03800000
*          LOTOUP   - LOWER TO UPPER CASE CHARS TABLE                 * 03850000
*                                                                     * 03900000
* MACROS = LINK, SAVE, RETURN, OPEN, READ, CHECK, CLOSE               * 03950000
*                                                                     * 04000000
* CHANGE ACTIVITIES AS FOLLOWS:                                       * 04050000
* CHANGE 01  11/15/77  PROLOGUE ADDED                                 * 04050107
* CHANGE 02  02/22/78  BNGHJN MACRO ADDED                             * 04050207
*A091000                                                       @OZ30479 04050307
*D097500                                                       @OZ30479 04050407
*C152500,157000-159000                                         @OZ30479 04050507
*C477500                                                       @OZ30478 04050607
*C097000                                                       @OZ30675 04050707
*A490500                                                       @OZ31880 04050807
*D411500-412500                                                @OZ31877 04050907
*C414000-414500,506500-507000,554000-555000,556500-560000      @OZ31877 04051007
*C561500-564000                                                @OZ31877 04051107
*A369500,613000,636500                                         @OZ31884 04051207
*                                                                     * 04150000
*********************************************************************** 04200000
  TITLE 'DISPLAY AUDITS INPUT AND DISPLAYS ALL LINES,LINE, CTRL'        04250000
TCAMFLDS DSECT                                                          04300000
         USING *,10                                                     04350000
TIOATDL  DC    X'0000'      TERMINAL DATA LENGTH                        04400000
TCTTETT  DS    CL1    91=REMOTE  99=LOCAL 3270                          04450000
TCTTETM  DS    CL1      F1= MODEL 1  F2=MODEL 2 3270                    04500000
TCTTEGU  DS    0H                                                       04550000
TCTTELRN DS CL3     LINE ADDRESS REL LINE #                             04600000
TCTTETA  DS    CL1      CONTROL UNIT ADDRESS                            04650000
         DS    CL1     TERMINAL ADDRESS REMOTE                          04700000
TIOADBA  DS    CL100          TERMINAL INPUT AREA                       04750000
TCTTETI  DS CL8      TCAM SYMBOLIC ADDRESS                              04800000
TIOWCC   DS    CL1        C2 CHARACTER FULL SCREEN WRTIE                04850000
TIOADBAO DS    CL2000    TERMINAL OUTPUT AREA                           04900000
DECB     DSECT                     USED IN FILE I/O ERROR ROUTINE       04950000
         DS    CL1                                                      05000000
EXCPBITS DS    CL2                 ADR OD EXCP BITS PLACED BY SUPVR     05050000
         DS    CL1                                                      05100000
SLOTS    DSECT           MAP OF ENTRIES IN CONTROL BLOCK                05150000
         USING SLOTS,DATAREG                                            05200000
SLOTLINE DS    CL6                CHANNEL ADDRESS(PORT OR LIB)          05250000
SLOTNBC  DS    CL2                NUMBER OF BLOCKS IN THIS CHAIN        05300000
SLOTHITS DS    CL2                TOTAL HITS ON THIS LINE               05350000
SLOTRFB  DS    CL3                RELATIVE ADDRESS FIRST BLOCK IN CHAIN 05400000
SLOTRLB  DS    CL3                RELATIVE ADDRESS LAST BLOCK IN CHAIN  05450000
SLOTLTH  EQU   *-SLOTS                                                  05500000
         ORG   SLOTS         MAP OF MDR AND OBR IN DETAIL BLOCKS        05550000
DATALTH  DS    C                   LTH OF THIS SLOT                     05600000
LINEIDA  DS    CL6                 LINE AND LIB ADDR                    05650000
ENTRYTYP DS    C                   ENTRY TYPE - MDR OR OBR              05700000
         DS    CL3                                                      05750000
MDRTYPE  DS    C                   TYPE HDWE - 03 EQUALS 3270           05800000
         DS    CL3                                                      05850000
DATE     DS    CL4                 DATE OF ERROR - 00YY0DDF             05900000
TIME     DS    CL4                 TIME OF ERROR - HHMMSSHH             05950000
         DS    CL8                                                      06000000
MDRCUA   DS    CL2                 MDR CHAN & UNIT ADDR                 06050000
MDRCTRL  DS    C                   MDR CTRL UNIT POLL ADDR              06100000
MDRTERM  DS    C                   MDR TERMIL POLL ADDR                 06150000
MDRSTATS DS    CL2                 REMOTE 3270 STATUS                   06200000
         DS    CL2                                                      06250000
OBRCCW   DS    CL8                 LAST CCW EXECUTED                    06300000
OBRCSW   DS    CL8                 CHANNEL STATUS WORD                  06350000
         DS    CL6                                                      06400000
OBRUCB   DS    C                                                        06450000
         DS    CL3                                                      06500000
OBRCUA   DS    CL2                 OBR CHAN & UNIT ADDR                 06550000
OBRCTRL  DS    C                                                        06600000
OBRTERM  DS    C                                                        06650000
         DS    CL12                                                     06700000
OBRSENSE DS    CL2                 OBR SENSE BYTES                      06750000
*********************************************************************** 06800000
SBA      EQU   X'11'          SET BUFFER ADDRESS                        06850000
SF       EQU   X'1D'          START FIELD                               06900000
IC       EQU   X'13'          INSERT CURSOR                             06950000
UNA      EQU   X'40'          UNPROTECTED,NORMAL INTENSITY, ALPHAMERIC  07000000
UMN      EQU   X'41'               UNPROT,NORMAL,MODIFIED               07050000
PNA      EQU   X'60'          PROTECTED, NORMAL INTENSITY, ALPHAMERIC   07100000
PHA      EQU   X'E8'              PROTECTED, HIGH INTENSITY, ALPHAMERIC 07150000
MNP      EQU   X'61'               PROT,MODIFIED,NORMAL                 07200000
PIA      EQU   X'6D'               PROTECTED,MODIFIED,INVISIBLE,ALPHA   07250000
L1P1     EQU   X'4040'        LINE 1, POSITION 1  BUFFER ADDRESS.       07300000
L1P7     EQU   X'40C6'        LINE 1, POSITION 7  BUFFER ADDRESS.       07350000
L1P36    EQU   X'40E3'        LINE 1, POSITION 36 BUFFER ADDRESS.       07400000
L2P1     EQU   X'C150'        LINE 2, POSITION 1  BUFFER ADDRESS.       07450000
L2P4     EQU   X'C1D3'                                                  07500000
L2P44    EQU   X'C17B'                                                  07550000
L3P1     EQU   X'C260'                                                  07600000
L3P4     EQU   X'C1D3'                                                  07650000
L4P1     EQU   X'C3F0'       LINE 4, POSITION 1  BUFFER ADDRESS.        07700000
L4P4     EQU   X'C17B'                                                  07750000
L6P26    EQU   X'C6E9'       LINE 6 POS 26 BUFFER ADDRESS               07800000
R0       EQU   0             USED IN FILE I/O ERROR ROUTINE             07850000
R1       EQU   1                                                        07900000
REG1     EQU   1                                                        07950000
BASE1    EQU   3             BASE REGISTER ONE = 0-4095                 08000000
BASE2    EQU   4             BASE REGISTER TWO = 4096-8191              08050000
BASE3    EQU    12           BASE REGISTER THREE 8192 - 12287           08100000
TIOABAR  EQU   5             POINTS TO TIOA                             08150000
MOD1REG  EQU   5             POINTS TO MOD-1 TABLE (MOD1TABL)           08200000
FIOABAR  EQU   6             POINTS TO FIOA                             08250000
PARMREG  EQU   6             POINTS TO PARM AREA                        08300000
OUTREG   EQU   7             POINTS TO DATA IN TIOA AREA                08350000
OUTLOOP  EQU   8             USED FOR LOOPING THRU DATA IN TIOA AREA    08400000
R8       EQU   8             USED IN FILE I/O ERROR ROUTINE             08450000
DATAREG  EQU   9             POINTS TO DATA IN FIOA AREA                08500000
DATALOOP EQU   2             USED FOR LOOPING THRU DATA IN FIOA AREA    08550000
TABLEREG EQU   11                 POINTS TO FUNCTION/COMPANION TABLE    08600000
LINKREG  EQU   11                 SUBROUTINE LINKAGE                    08650000
R11      EQU   11                                                       08700000
R13      EQU   13                                                       08750000
R14      EQU   14                                                       08800000
R15      EQU   15                                                       08850000
*********************************************************************** 08900000
BNGTDISP CSECT                                                          08950000
         SAVE  (14,12)             SAVE CALLERS REGS                    09000000
         BALR  BASE1,0             ADDRESS ABILITY                      09050000
         USING *,BASE1,BASE2,BASE3                                      09100000
BNGTDISP BNGHJN SKIPID                                         @OZ30479 09120007
         ST     R13,SAVREG      SAVE CALLERS SAVE REG                   09150000
         LA    R13,SAVAREA                                              09200000
         LA    BASE2,2048(BASE1)                                        09250000
         LA    BASE2,2048(BASE2)                                        09300000
         LA    BASE3,2048(BASE2)                                        09350000
         LA    BASE3,2048(BASE3)                                        09400000
         LA    TIOABAR,TIOADBA       LOAD ADDRESS OF INPUT AREA         09450000
         ST    TIOABAR,TCTTEDA       SAVE INPUT AREA ADDRESS            09500000
         LA    FIOABAR,FIOADBA       LOAD ADDRESS OF FILE AREA          09550000
         ST    R14,TCAFCAAA        STORE RETURN ADDRESS IN  THIS FIELD  09600000
         ST    FIOABAR,TCAFCAA                                          09650000
         LA    BASE1,EMFILE             POINT R3 TO EMFILE     @OZ30675 09700007
         B     PROGSTRT                                        @OZ30675 09709007
         DROP  BASE1                                           @OZ30675 09718007
***************************************************************@OZ30675 09727007
* NOTE: ANY CHANGE BETWEEN THIS POINT AND LABLE 'PROGSTRT'     @OZ30675 09736007
*      REQUIRES A LIKE CHANGE TO BNGTDISP DSECT IN BNGT3270,   @OZ30675 09745007
*      BNGTMENU, BNGTLOCL, AND IN BNGTRMOT.                    @OZ30675 09754007
***************************************************************@OZ30675 09763007
         USING EMFILE,BASE1                                    @OZ30675 09772007
EMFILE DCB DDNAME=EMFILE,DSORG=DA,MACRF=(RIC),OPTCD=R,                 X09800000
               RECFM=F,SYNAD=F190                                       09850000
SAVREG   DS    A                   RETURN SAVE AREA ADDRESS             09900000
SAVAREA  DS    18F                 DEMFDISP SAVE AREA                   09950000
TCAFCAAA DS    A                   TCAM RETURN ADDRESS                  10000000
TCTTEDA  DS    A                   ADDRESS OF PASSED FIELD              10050000
TCAPCPI  DC    CL8'00'        SYMBOLIC PROGRAM NAME TO LINK TO          10100000
TCAFCAA  DS    A                   FILE I/O AREA                        10150000
         DS    0H                                                       10200000
* INSERT PARM1 AND OTHER DC'S HERE                                      10250000
PARM1    DS    D                   1ST INPUT PARM - DEMF                10300000
PARM2    DS    D                   2ND INPUT PARM - ALL/LINE/CTRL/      10350000
*                                       TERM   24230000                 10400000
PARM3    DS    D                   3RD INPUT PARM                       10450000
PARM4    DS    D                   4TH INPUT PARM                       10500000
PARM5    DS    D                   5TH INPUT PARM                       10550000
PARM6    DS    D                   6TH INPUT PARM                       10600000
SBACNT   DS    PL1                 COUNT OF SBA'S IN INPUT              10650000
RELREC   DS    CL3                 BDAM RELATIVE BLOCK ADDRESS          10700000
SVRELREC DS    CL3           SAVE AREA FOR LINE/CTRL RELATIVE BLOCK NO. 10750000
DBLWD    DS    D                   DOUBLEWORD WORK AREA                 10800000
DUBLWD   EQU   DBLWD                                                    10850000
FULLWD   DS    F                   FULLWORD WORK AREA                   10900000
TWALINE  DS     F          SAVE AREA FOR TCAM SYMBOLIC LINE POINTER     10950000
*   THE TWA FROM HERE UP MUST REMAIN IN THAT ORDER TO MATCH TWALINE     11000000
*         WITH TWATCTID IN THE 3270 PROGRAM.                            11050000
LINEID   DS    XL6                 HARDWARE LINE ADDRESS                11100000
LINENAME DS    CL8           LINE NAME SAVE AREA FOR RECAP HEADER       11150000
CTRLID   DS    X                   HARDWARE CONTROL UNIT ADDRESS        11200000
CTRLNAME DS    CL8           CTRL/CLUSTER NAME WORK AREA FOR OUTPUT     11250000
TERMNAME DS    CL8                 TERML/LOGICAL UNIT NAME WORK AREA    11300000
CLUSNAME DS    CL8           CTRL/CLUSTER NAME SAVE AREA FOR RECAP HDR. 11350000
NEWPARM  DS    C                   NEW-PARM SWITCH                      11400000
CTRPARM  DS    C                   COUNTER OF CHARACTERS IN PARM(X)     11450000
SAVETIOA DS    F                   SAVE AREA FOR ORIGINAL TIOA          11500000
SAVEBBSS DS    F                   SAVE POINTER TO BLK AND SLOT         11550000
TWASLOT  DS    C                   INPUT SLOT COUNT IN HEX              11600000
*                                  DISPLACEMENTS IN TIOA                11650000
SAVERCAP DS    F                   SAVEAREA FOR POINTER TO RECAP LINE   11700000
SAVEITEM DS    F                   SAVEAREA FOR POINTER TO FIRST LINE   11750000
*                                  AND CTRL DISPLAYS                    11800000
SLOTCNT  DS    C                   COUNT OF DETAIL SLOTS READ           11850000
ITEMCNT  DS    PL2                 COUNT OF OUTPUT ITEMS IN LINE        11900000
WORKCNT  DS    PL2                 ITEM WORK COUNTER                    11950000
WORK15   DS    CL15                                                     12000000
QUITSW   DS    C             USED TO STOP EDIT OF INPUT ON 3RD SBA      12050000
*                             IF 2ND SBA = L1P7 OR L6P26  ***ALSO*** XH 12100000
*                            USED AS MOD-1 OUTPUT-FULL-SWITCH        XH 12150000
*                               00 = NOT FULL   FF = OUTPUT FULL BUT XH 12200000
*             CONTINUE SCANNINGDATABASEFOR CORRECT ERROR COUNTSXH       12250000
         DC    C'FILE I/O AREA'                                         12300000
         CNOP  0,4                                                      12350000
         USING *,FIOABAR                                                12400000
DFHFIOA  DS    0H      FILE I/O AREA ADDRESS                            12450000
FIOADBA  DC    4096X'00'             FILE INPUT AREA                    12500000
ENDDATA  DC    X'FFFFFFFF'         MARK END OF FILE RECORD              12550000
         ORG FIOADBA                                                    12600000
CTRLLAST DS    F                   LAST USED ADDR IN DATASET            12650000
CTRLTOTL DS    F                   TOTAL BLOCKS IN DATASET              12700000
CTRLBACK DS    F                   BACKWARD PTR IN CTRL BLK CHAIN       12750000
CTRLFWD  DS    F                   FORWARD PTR IN CTRL BLK CHAIN        12800000
CTRLENTS DS    C                   NBR ENTRIES IN THIS CTRL BLK         12850000
         DS    CL15                FOR FUTURE USE                       12900000
CTRLSLT1 DS    0C                  START OF CTRL SLOT NBR ONE.          12950000
         ORG   FIOADBA                                                  13000000
DATAPORT DS    CL6                 PORT & LIB ADDR                      13050000
DATATIME DS    CL4                 TIME BLOCK CREATED                   13100000
DATADATE DS    CL4                 DATE BLOCK CREATED                   13150000
DATAFWD  DS    CL3                 FORWARD CHAIN ADDR                   13200000
DATABACK DS    CL3                 BACKWAD CHAIN ADDR                   13250000
BLKLTH   DS    CL2                 NBR BYTES USED IN THIS BLOCK         13300000
         DS    CL10                                                     13350000
DATASLT1 DS    0C                  START OF 1ST DATA SLOT               13400000
         ORG   ENDDATA+8                                                13450000
PROGSTRT EQU    *                                                       13500000
         L     TIOABAR,TCTTEDA                                          13550000
         ZAP   SBACNT,=P'0'        SET SBA COUNTER TO ZERO.             13600000
         TR    TIOADBA(80),LOTOUP  TRANSLATE LOWER CASE TO UPPER CASE.  13650000
         LA    DATAREG,TIOADBA      POINT TO 1ST BYTE IN TIOA.          13700000
         LR    DATALOOP,DATAREG    SETUP DATA LOOP                      13750000
         AH    DATALOOP,TIOATDL    DATALOOP = INPUT END POINTER         13800000
         LA    PARMREG,PARM1       POINT TO PARMS.                      13850000
         XC    PARM1(48),PARM1     ZERO OUT PARM FIELDS                 13900000
         LR    R14,PARMREG                                              13950000
         MVI   QUITSW,X'00'        INIT QUITSW = 00                     14000000
         MVI   NEWPARM,C'1'        TURN ON 'NEW PARM' SWITCH.           14050000
         MVI   CTRPARM,X'00'       INIT PARM COUNTER = ZERO             14100000
A160     CLI   0(DATAREG),SBA      IS THIS BYTE AN SBA?                 14150000
         BNE   A210                NO. CHECK IT FURTHER.                14200000
         CLI   QUITSW,X'FF'            QUIT SWITCH ON?                  14250000
         BE    C10                          YES.  QUIT EDIT.            14300000
         CLC   1(2,DATAREG),=AL2(L1P7)  IS 2ND SBA = LINE 1 POSN 7      14350000
         BE    A170                NO,CONTINUE EDIT                     14400000
         CLC   1(2,DATAREG),=AL2(L6P26) IS 2ND SBA = LINE 6 POS 26      14450000
         BNE   A180                              NO. CONTINUE EDIT      14500000
A170     MVI   QUITSW,X'FF'        TURN QUIT SWITCH ON                  14550000
A180     AP    SBACNT,=P'1'        YES. ADD TO TO SBA COUNTER.          14600000
         LA    DATAREG,2(DATAREG)  BUMP TIOA POINTER BY 2.              14650000
         B     B80                                                      14700000
A210     CLI   0(DATAREG),C'A'     IS IT AN 'A' OR HIGHER?              14750000
         BL    B80                 NO. CHECK NEW PARM SWITCH.           14800000
         CLI   NEWPARM,C'1'        IS FIRST CHAR FOR PARM(X)?           14850000
         BNE   B10                 NO.                                  14900000
         MVI   NEWPARM,C'0'        YES. SET FIRST CHAR IN FOR PARM      14950000
         MVI   CTRPARM,X'00'       SET PARM CHAR CTR = 0                15000000
B10      IC    R11,CTRPARM         LOAD R11 = CTRPARM                   15050000
         LA    R11,1(R11)          ADD CTRPARM = CTRPARM + 1            15100000
         STC   R11,CTRPARM         STORE NEW CTR BACK CTRPARM           15150000
         CLI   CTRPARM,X'08'       IS CHAR COUNT IN PARM OVER 8 ?       15200000
         BH    B50                 YES.                        @OZ30479 15250007
         MVC   0(1,14),0(DATAREG)  PUT THIS BYTE IN THIS PARM           15300000
         CLI   PARM6+7,X'00'       ARE ALL PARMS USED UP?               15350000
         BNE   C10                 YES. GOTO SYNTAX CHECKING ROUTINE    15400000
         LA    14,1(14)            BUMP PARM POINTER WORKREG.           15450000
B40      LA    DATAREG,1(DATAREG)  BUMP TIOA POINTER.                   15500000
         CR    DATAREG,DATALOOP    IS THERE MORE DATA IN TIOA?          15550000
         BL    A160                YES. GO PROCESS MORE DATA.           15600000
         B     C10                 NO. GOTO SYNTAX CHECKING ROUTINE     15650000
B50      CLC   PARM2(5),=X'F3F2F7F000'  IS THIS 3270 INPUT ?   @OZ30479 15700007
         BNE   B40                      NO.                    @OZ30479 15740007
         CP    SBACNT,=P'2'        IS THIS NON-XED INPUT ?     @OZ30479 15780007
         BH    B40                 NO.                         @OZ30479 15820007
         B     Z40                 SEND INVALID SYNTAX MSG.    @OZ30479 15860007
B80      CLI   NEWPARM,C'1'        IS NEW-PARM SWITCH ON?               15950000
         BE    B40                 YES. CHECK FOR MORE DATA.            16000000
         CLI   PARM6,X'00'         NO. ARE ALL PARMS USED UP?           16050000
         BNE   C10                 YES. GOTO SYNTAX CHECKING ROUTINE    16100000
         LA    PARMREG,8(PARMREG)  NO. BUMP TO NEXT NEW PARM.           16150000