         PRINT OFF                                                      00050007
         MACRO                                                          00050407
&NAME    BNGHJN &LABEL,&HJN                                             00050807
         LCLC  &HJA,&HJB                                                00051207
&HJA     SETC  '&SYSPARM'(1,4)                                          00051607
&HJB     SETC  '&SYSPARM'(5,4)                                          00052007
         AIF   ('&LABEL' EQ '').NOBRNCH                                 00052407
         B     &LABEL .                 BR AROUND CONSTANTS             00052807
         SPACE 2                                                        00053207
.NOBRNCH ANOP                                                           00053607
         AIF   ('&NAME' EQ '').NOLABEL                                  00054007
         DC    C'&NAME' .              MODULE IDENTIFIER                00054407
.NOLABEL ANOP                                                           00054807
         DC    X'&HJA' .                DATE OF MODIFICATION            00055207
         AIF   ('&HJN' NE 'HJN').DATE                                   00055607
         DC    X'&HJB' .                HJN OF MODIFICATION             00056007
.DATE    ANOP                                                           00056407
         AIF   ('&LABEL' EQ '').NOLBL                                   00056807
         SPACE 2                                                        00057207
&LABEL   DS    0H                                                       00057607
.NOLBL   ANOP                                                           00058007
         MEND                                                           00058407
         PRINT ON                                                       00058807
*********************************************************************** 00059207
*                                                                     * 00100007
* MODULE NAME = BNGTLOCL                                              * 00150007
*                                                                     * 00200007
* DESCRIPTIVE NAME = TCAM DEMF LOCAL TERMINAL ERROR TEXT DISPLAY      * 00250007
*                                                                     * 00300007
* COPYRIGHT = NONE                                                    * 00350007
*                                                                     * 00400007
* STATUS = RELEASE 1, LEVEL 1                                         * 00450007
*                                                                     * 00500007
* FUNCTION = 1) DISPLAYS CANNED STATUS/SENSE TEXT OF ALL POSSIBLE     * 00550007
*               LOCAL TERMINAL ERROR COMBINATIONS;                    * 00600007
*            2) PROVIDES THE SELECTION DISPLAY OF EXPLANATION AND     * 00650007
*               POSSIBLE CAUSES ON THE LOCAL TERMINAL STATUS/SENSE    * 00700007
*               WHICH IS SELECTED BY DEMF USER.                       * 00750007
*                                                                     * 00800007
* NOTES = NONE                                                        * 00850007
*                                                                     * 00900007
*    DEPENDENCIES = NONE                                              * 00950007
*                                                                     * 01000007
*    RESTRICTIONS = NONE                                              * 01050007
*                                                                     * 01100007
*    REGISTER CONVENTIONS = R10 CONTAINS ADDRESS OF INPUT MESSAGE     * 01150007
*                                                                     * 01200007
*    PATCH LABEL = NONE                                               * 01250007
*                                                                     * 01300007
* MODULE TYPE = TCAM DISPLAY                                          * 01350007
*                                                                     * 01400007
*    PROCESSOR = ASSEMBLER H                                          * 01450007
*                                                                     * 01500007
*    MODULE SIZE = 6353 DECIMAL BYTES                                 * 01550007
*                                                                     * 01600007
*    ATTRIBUTES = SERIALLY REUSABLE                                   * 01650007
*                                                                     * 01700007
* ENTRY POINT = BNGTLOCL                                              * 01750007
*                                                                     * 01800007
*    PURPOSE = SEE FUNCTION                                           * 01850007
*                                                                     * 01900007
*    LINKAGE = R14 LOADED WITH THE RETURN ADDR (USED BY SUBROUTINE)   * 01950007
*                                                                     * 02000007
* INPUT = PARAM LIST ITEMS USED ARE :                                 * 02050007
*         IN MESSAGE ADDRESS  = TCAMFLDS (R10)                        * 02100007
*         IN MESSAGE COUNT    = VARIABLE (MAXIMUM=109 BYTES)          * 02150007
*                                                                     * 02200007
* OUTPUT = PARAM LIST ITEMS USED ARE :                                * 02250007
*         OUT MESSAGE ADDRESS = TIOADBAO (R10)                        * 02300007
*         OUT MESSAGE COUNT   = VARIABLE (MAXIMUM=2009 BYTES)         * 02350007
*                                                                     * 02400007
* EXIT-NORMAL = REGISTER 15 RETURN CODE RETURNED TO CALLER :          * 02450007
*               00 - OPERATION PERFORMED AS REQUESTED                 * 02500007
*                                                                     * 02550007
* EXIT-ERROR  = NONE                                                  * 02600007
*                                                                     * 02650007
* EXTERNAL REFERENCE = NONE                                           * 02700007
*                                                                     * 02750007
*    ROUTINES = NONE                                                  * 02800007
*                                                                     * 02850007
*    DATA AREAS = NONE                                                * 02900007
*                                                                     * 02950007
*    CONTROL BLOCK = DCB                                              * 03000007
*                                                                     * 03050007
* TABLES = NONE                                                       * 03100007
*                                                                     * 03150007
* MACROS = SAVE, RETURN                                               * 03200007
*                                                                     * 03250007
**********************CHANGE ACTIVITY FOLLOES:************************* 03300007
* CHANGE 01  11/15/77  PROLOGUE ADDED                                 * 03300107
* CHANGE 02  03/02/78  BNGHJN MACRO ADDED                             * 03300207
*C042000-049500                                                @OZ30675 03300307
*A086000                                                       @OZ30675 03300407
*D088500                                                       @OZ30675 03300507
*                                                                     * 03400007
*********************************************************************** 03450007
TCAMFLDS DSECT                                                          03500007
         USING *,10                                                     03550007
TIOATDL  DC    X'0000'    TERMINAL DATA LENGTH                          03600007
TCTTETT  DS    CL1   91=REMOTE  99=LOCAL 3270                           03650007
TCTTETM  DS    CL1    F1=MODEL 1  F2=MODEL 2 3270                       03700007
TCTTEGU  DS    0H     EUATE LOCAL LINE ADDRESES                         03750007
TCTLERLN DS    CL3     LINE ADDRESS RELATIVE LINE #                     03800007
TCTTETA  DS    CL1   CONTROL UNIT ADDRESS                               03850007
         DS    CL1     TERNINAL ADDRESS REMOTE                          03900007
TIOADBA  DS    CL100        TERMINAL INPUT AREA                         03950007
TCTTETI  DS    CL8          TCAM  SYMBOLIC ADDRESS                      04000007
TIOWCC   DC    X'C3'       WRITE ERASE                                  04050007
TIOADBAO DS    CL2000     TERMINAL OUTPUT AREA                          04100007
BNGTDISP DSECT                                                          04150007
         DS    4F                                              @OZ30675 04200007
         USING EMFILE,3                                        @OZ30675 04250007
EMFILE DCB DDNAME=EMFILE,DSORG=DA,MACRF=(RIC),OPTCD=R,                 X05000007
               RECFM=F                                                  05050007
SAVREG   DS    A                   RETURN SAVE AREA ADDRESS             05100007
SAVAREA  DS    18F                 DEMFDISP SAVE AREA                   05150007
TCAFCAAA DS    A                                                        05200007
TCTTEDA  DS    A                   ADDRESS OF PASSED FIELD              05250007
TCAPCPI  DC    CL8'00'    SYMBOLIC PROGRAM NAME TO LINK TO              05300007
TCAFCAA  DS    A                   FILE I/O AREA ADDRESS                05350007
         DS    0H                                                       05400007
TWAAREA  EQU   *        START OF TRANSACTION WORK AREA PAASE PARMS      05450007
PARM1    DS    D                   1ST INPUT FIELD.                     05500007
PARM2    DS    D                   2ND INPUT FIELD.                     05550007
PARM3    DS    D                   3RD INPUT FIELD.                     05600007
PARM4    DS    D                   4TH INPUT FIELD.                     05650007
PARM5    DS    D                   5TH INPUT FIELD.                     05700007
TWASBAS  DS    PL1                 COUNT OF SBA'S IN INPUT MSG.         05750007
TWAREL   DS    CL3                 FILE CONTROL RELATIVE BLK ADDR.      05800007
         DS    CL3            SAVE AREA FOR LINE/CTRLREL BLOCK NO.      05850007
DUBLWD   DS    D                   WORK AREA                            05900007
TWATIOA  DS    F                   SAVE INPUT ADDRESS.                  05950007
TWATCTID DS    F                   SAVE TERML ID.                       06000007
TWASLOT  DS    F                   SLOT COUNTER.                        06050007
SAVE14   DS    F                   SAVE AREA.                           06100007
TWAOUT   DS    F                   SAVE OUTPUT HDR ADDR                 06150007
LINESZ   DS    H                   LINE SIZE (3277 MOD 1 OR MOD 2)      06200007
LINELOOP DS    H                   NBR LINE ITEMS PER LINESZ.           06250007
OUTSWCH  DS    C                                                        06300007
TEXTSW   DC    X'00'                                                    06350007
HXLINLIB DS    0CL6                LINE ADDRESS INCLUDING               06400007
         DS    C                                                        06450007
HEXLINE  DS    CL2                      VTAM LIB ADDR                   06500007
HEXLIB   DS    CL3                      IN HEX FORMAT.                  06550007
HEXCTRL  DS    C                   CTRL UNIT POLL CHAR.                 06600007
HEXTERM  DS    C                   TERML POLL CHAR.                     06650007
NEWFIRST DS    CL5                 SAVE AREA FOR OLD BLK & SLOT NBR.    06700007
NEWPREV  DS    CL5                 SAVE AREA FOR OLD BLK & SLOT NBR.    06750007
        CNOP   0,4                                                      06800007
*                             IF 2ND SBA = L1P7                         06850007
         ORG   PARM5+X'71'         JUMP PAST DEMFDISP WORK AREA         06900007
         DC    C'FILE I/O AREA'                                         06950007
         CNOP  0,4                                                      07000007
DFHFIOA  DS    0H      FILE I/O AREA ADDRESS                            07050007
FIOADBA  DC    4096X'00'        FILE INPUT AREA                         07100007
ENDDATA  DC    X'FFFFFFFF'     MARK END OF DATA                         07150007
         ORG   ENDDATA+8                                                07200007
PROGSTRT EQU   *                                                        07250007
         TITLE 'BNTG LOCAL SRL TEXT MODULE'                             07300007
BNGTLOCL CSECT                                                          07350007
BASEREG  EQU   2                                                        07400007
TCTTEAR  EQU   5                                                        07450007
TIOABAR  EQU   5                                                        07500007
FIOABAR  EQU   6                                                        07550007
SBAREG   EQU   7                                                        07600007
OUTREG   EQU   8                                                        07650007
LINKREG  EQU   12                                                       07700007
DATAREG  EQU   9                                                        07750007
MSGREG   EQU   6                                                        07800007
LIMITREG EQU   11                                                       07850007
NEXTREG  EQU   8                                                        07900007
LTHREG   EQU   7                                                        07950007
INREG    EQU   7                                                        08000007
L18P21   EQU   X'D5E4'   MOD2 SCREEN                                    08050007
SML12P1  EQU   X'C6F8'   MOD1 SCREEN                                    08100007
SBA      EQU   X'11'                        SET BUFFER ADDR COMMAND     08150007
SF       EQU   X'1D'                        START FIELD COMMAND         08200007
IC       EQU   X'13'                        INSERT CURSOR COMMAND       08250007
UNA      EQU   X'40'     UNPROTECTED,NORMAL INTENSITY,ALPHAMERIC        08300007
MNA      EQU   X'61'     MODIFIED,NORMAL INTENSITY,ALPHAMERIC           08350007
PDA      EQU   X'E8'     PROTECTED,HIGH INTENSITY,ALPHAMERIC            08400007
PDM      EQU   X'E9'     PROTECTED,HIGH INTENSITY,MODIFIED              08450007
PNA      EQU   X'60'     PROTECTED,NORMAL INTENSITY,ALPHAMERIC          08500007
         BALR  BASEREG,0                                                08550007
         USING *,BASEREG                                                08600007
BNGTLOCL BNGHJN SKIPID                                         @OZ30675 08620007
         SAVE  (14,12)                                                  08650007
         ST    13,SAVREGL           SAVE RESTORE REG                    08700007
         LA    13,SAVAREAL      SAVE AREA FOR LOCAL                     08750007
         B     B5                                                       08800007
SAVEREG  DS    F                                                        08900007
HALFWORD DS    H                                                        08950007
SBACTR   DS    PL1                                                      09000007
SAVREGL  DC    A(0)                                                     09050007
SAVAREAL DS    18F                          REG SAVE AREA               09100007
B5       L     TCTTEAR,TCAFCAAA                                         09150007
         L     TIOABAR,TCTTEDA                                          09200007
         LA    INREG,TIOADBA                LOCATE INPUT DATA.          09250007
         MVI   INDEXSW,X'00'                SET INDEXSW = OFF           09300007
         CLI   0(INREG),SBA                                             09350007
         BNE   B12                                                      09400007
         LA    INREG,3(INREG)                                           09450007
B12      CLC   15(3,INREG),=C'SS='          IS THIS A RQUEST FOR TEXT?  09500007
         BE    D1                           YES. GO LOCATE IT.          09550007
         MVI   INDEXSW,X'FF'                SET INDEXSW = ON            09600007
B14      EQU   *                            NO. BUILD AN INDEX PAGE.    09650007
         LA    LTHREG,IXHDRLTH+3+(44*(SSLTH+4))+(11*SBALTH)             09700007
         BAL   LINKREG,GETTIOA              FREE INAREA & GET OUTAREA.  09750007
         MVC   0(IXHDRLTH,OUTREG),IXHDR     MOVE INDEX HEADER LINE.     09800007
         LA    OUTREG,IXHDRLTH(OUTREG)                                  09850007
         LA    MSGREG,MSG1                  SETUP TO LOCATE ALL         09900007
         L     LIMITREG,=A(LASTMSG)         'SS=????' FIELDS.           09950007
         ZAP   SBACTR,=P'4'                 SETUP FOR 4 PER LINE.       10000007
B22      CLC   0(3,MSGREG),=X'60E2E2'          IS THIS A SENSE/STATUS?  10050007
         BE    C8                           YES. ADD IT TO OUTAREA.     10100007
B24      LA    MSGREG,1(MSGREG)             NO. CONTINUE LOOKING.       10150007
         CR    MSGREG,LIMITREG              ALL DONE?                   10200007
         BL    B22                          NO.                         10250007
         CLI   TCTTETM,C'2'                 IS THIS FOR MOD2 SCREEN?    10300007
         BNE   C3                           NO.                         10350007
         LA    SBAREG,SBA192C               LOAD LAST SBA ATTR ADDR     10400007
         MVC   0(5,OUTREG),0(SBAREG)        MOVE LAST PROTECTED ATTR    10450007
         LA    OUTREG,5(OUTREG)             BUMP 5 BYTES                10500007
C3       CLI   INDEXSW,X'FF'                IS INDEXSW ON ?             10550007
         BNE   C6                           NO.                         10600007
         CLI   TCTTETM,X'F1'                IS THIS A 3277-1 ?          10650007
         BE    C5                           YES.                        10700007
         MVC   0(HITMSGLL,OUTREG),HITMSGL   MOVE 'HIT CLEAR KEY' MSG    10750007
         LA    OUTREG,HITMSGLL(OUTREG)      BUMP OUTPUT POINTER         10800007
         B     C6                                                       10850007
C5       MVC   0(HITMSGSL,OUTREG),HITMSGS   MOVE 'HIT CLEAR KEY' MSG    10900007
         LA    OUTREG,HITMSGSL(OUTREG)      BUMP OUTPUT POINTER         10950007
C6       LA    1,TIOADBAO                    YES,                       11000007
         SR    OUTREG,1                     COMPUTE FINAL               11050007
         STH   OUTREG,TIOATDL               DATA LENGTH.                11100007
         L     13,SAVREGL                   RELOAD  CALLERS SAV AREA    11150007
         RETURN (14,12)                                                 11200007
*********************************************************************** 11250007
*                                                                     * 11300007
*        RETURN                                                       * 11350007
*                                                                     * 11400007
*********************************************************************** 11450007
C8       CP    SBACTR,=P'4'                 BEGINNING A NEW LINE?       11500007
         BNE   C14                          NO.                         11550007
         CLI   TCTTETM,C'2'                 IS THIS FOR MOD2 DISPLAY?   11600007
         BE    C12                          YES.                        11650007
C11      MVC   0(3,OUTREG),0(SBAREG) XXXX   NO. (MOD1) MOVE NEXT        11700007
         LA    SBAREG,3(SBAREG) XXXX        SBA SEQUENCE                11750007
         LA    OUTREG,3(OUTREG) XXXX        TO OUTPUT AREA.             11800007
         B     C13                                                      11850007
C12      MVC   0(8,OUTREG),0(SBAREG) XXXX   YES. MOVE NEXT              11900007
         LA    SBAREG,8(SBAREG) XXXX        SBA SEQUENCE                11950007
         LA    OUTREG,8(OUTREG) XXXX        TO OUTPUT AREA.             12000007
C13      ZAP   SBACTR,=P'0'                                             12050007
C14      MVC   0(SSLTH,OUTREG),SSMSG        MOVE THIS ITEM              12100007
         MVC   SSLTH(4,OUTREG),4(MSGREG)    TO OUTPUT AREA.             12150007
         LA    OUTREG,(SSLTH+4)(OUTREG)                                 12200007
         AP    SBACTR,=P'1'                 ADD 1 TO ITEMS THIS LINE.   12250007
         B     B24                                                      12300007
D1       L     LIMITREG,=A(LASTMSG)         POINT TO LAST MSG.          12350007
         LA    MSGREG,MSG1                  POINT TO 1ST MSG.           12400007
         LR    NEXTREG,MSGREG                                           12450007
D3       MVC   HALFWORD,0(MSGREG)                                       12500007
         AH    NEXTREG,HALFWORD             POINT TO NEXT MSG.          12550007
         ST    MSGREG,SAVEREG                                           12600007
D4       CLC   0(7,MSGREG),15(INREG)        IS THIS THE DESIRED MSG?    12650007
         BE    D12                          YES, MOVE IT TO OUTAREA.    12700007
         LA    MSGREG,1(MSGREG)             NO. STILL IN THIS MSG?      12750007
         CR    MSGREG,NEXTREG                                           12800007
         BL    D4                           YES. KEEP LOOKING.          12850007
         CR    MSGREG,LIMITREG              ALL MSGS LOOKED AT?         12900007
         BL    D3                           NO. RESET ON NEXT MSG.      12950007
         B     B14                          YES. BAD INPUT; SHOW INDEX. 13000007
D12      L     MSGREG,SAVEREG               RESTORE START OF THIS MSG.  13050007
         LA    LTHREG,PGHDRLTH+(12*SBALTH)                              13100007
         MVC   HALFWORD,0(MSGREG)                                       13150007
         AH    LTHREG,HALFWORD              COMPUTE LTH THIS MSG & HDR. 13200007
         MVI   TEXTSW,X'FF'                 SET GETTIOA SUBR SWT        13250007
         BAL   LINKREG,GETTIOA              FREE INAREA & GET OUTAREA.  13300007
         MVC   0(PGHDRLTH,OUTREG),PGHDR     MOVE PAGE HDR LINE.         13350007
         LA    OUTREG,PGHDRLTH(OUTREG)                                  13400007
         MVC   HALFWORD,0(MSGREG)                                       13450007
         LH    1,HALFWORD                   GET TRUE LENGTH             13500007
         SH    1,=H'2'                      OF THIS MSG.                13550007
D20      CH    1,=H'40'                     ONE MORE FULL LINE TO DO?   13600007
         BH    E2                           YES. MOVE IT.               13650007
         MVC   0(3,OUTREG),0(SBAREG)        NO. MOVE THE                13700007
         EX    1,MOVE                       REMAINDER AND               13750007
         AR    OUTREG,1                     GET OUT.                    13800007
         LA    OUTREG,3(OUTREG)                                         13850007
         B     C3                                                       13900007
E2       MVC   0(3,OUTREG),0(SBAREG)        MOVE NEXT SBA SEQUENCE.     13950007
         LA    SBAREG,3(SBAREG)                                         14000007
         CLI   2(MSGREG),SF       IF THIS IS A LINE                     14050007
         BNE   E5                 CONTAINING ATTRIBUTES,                14100007
         MVC   3(2,OUTREG),2(MSGREG)   MOVE                             14150007
         LA    OUTREG,2(OUTREG)        TWO EXTRA                        14200007
         LA    MSGREG,2(MSGREG)        BYTES.                           14250007
         SH    1,=H'2'                                                  14300007
E5       MVC   3(40,OUTREG),2(MSGREG)       MOVE 40 CHARS OF TEXT.      14350007
         LA    OUTREG,43(OUTREG)                                        14400007
         LA    MSGREG,40(MSGREG)                                        14450007
         SH    1,=H'40'                     DECREMENT RESIDUAL COUNT.   14500007
         B     D20                                                      14550007
**  NEXT SEQUENCE REINTIALIZES TIOA TO BLANKS                           14600007
GETTIOA  LA    0,TIOADBAO            FIELD TO BE CLEARED                14650007
         LA    1,2000                LENGTH OF FIELD OT BE CLEARED      14700007
         L     DATAREG,=X'40000001'  LENGTH AND PADDING CHARACTER       14750007
         LA    OUTREG,FORTY          LOAD ADDRESS OF CLEAR DATA         14800007
         MVCL  0,OUTREG              MOVE 2000 CLEAR DATA TO TIOA       14850007
**  END OF INITIALIZE CODE                                              14900007
         LA    TIOABAR,TIOADBAO                                         14950007
         ST    TIOABAR,TCTTEDA            SAVE OUTPUT AREA ADDR         15000007
         LA    SBAREG,SBA1920                                           15050007
         CLI   TCTTETM,C'2'                 SETUP ON LIST OF 12         15100007
         BE    G11                          SBA SEQUENCES FOR           15150007
G10      LA    SBAREG,SBA480 XXXX           APPROPRIATE TERM MODEL.     15200007
G1A      MVC   TIOADBAO(3),0(SBAREG) XXXX                               15250007
         LA    SBAREG,3(SBAREG) XXXX        PRIME OUTAREA FOR LINE 1    15300007
         LA    OUTREG,TIOADBAO+3 XXXX        AND SETUP OUTREG FOR       15350007
         BR    LINKREG                                                  15400007
G11      CLI   TEXTSW,X'FF'                 IS TEXTSW ON?               15450007
         BNE   G12                          NOT ON.                     15500007
         LA    SBAREG,SBATXT2               SET SBAREG = SBATXT2 PTR    15550007
         B     G1A                                                      15600007
G12      LA    SBAREG,SBA192A                                           15650007
         MVC   TIOADBAO(5),0(SBAREG) XXXX                               15700007
         MVC   TIOADBAO+5(5),5(SBAREG) XXXX                             15750007
         MVC   TIOADBAO+10(3),10(SBAREG) XXXX                           15800007
         LA    SBAREG,13(SBAREG) XXXX       PRIME OUTAREA FOR LINE 1    15850007
         LA    OUTREG,TIOADBAO+13 XXXX       AND SETUP OUTREG FOR       15900007
         BR    LINKREG                      REMAINING DATA.             15950007
FORTY    DC    X'40404040'                                              16000007
SBALTH   EQU   3                                                        16050007
SBA192A  DC    X'1140401D6C'       AL1(SBA),AL2(L1P1),AL1(SF,PIA)       16100007
SBA1920  DC    X'11C7601D6C11C7F411C8F01D6C11C9C4114A401D6C114AD4'      16150007
         DC    X'114B501D6C114BE4114C601D6C114CF4114DF01D6C114EC4'      16200007
         DC    X'114F401D6C114FD41150501D6C1150E411D1601D6C11D1F4'      16250007
         DC    X'11D2F01D6C11D3C411D4401D6C11D4D411D5501D6C11D5E4'      16300007
SBA192C  DC    X'11D2C81D6C'       AL1(SBA),AL2(L15P41),AL1(SF,PIA)     16350007
SBA480   DC    X'1140401140E811C15011C1F811C26011C3C8'                  16400007
         DC    X'11C3F011C4D811C54011C5E811C65011C6F8'                  16450007
SBATXT2  DC    X'11C7F411C9C4114AD4'                                    16500007
         DC    X'114BE4114CF4114EC4'                                    16550007
         DC    X'114FD41150E411D1F4'                                    16600007
         DC    X'11D3C411D4D411D5E4'                                    16650007
SSMSG    DC    AL1(SF,UNA),C'?SS='                                      16700007
SSLTH    EQU   *-SSMSG                                                  16750007
IXHDR    DC    AL1(IC,SF,MNA),C'DEMF LOCAL '                            16800007
         DC    AL1(SF,PNA),C'STATUS INDEX,X OVER ?,ENTER'               16850007
IXHDRLTH EQU   *-IXHDR                                                  16900007
PGHDR    DC    AL1(IC,SF,MNA),C'DEMF LOCAL '                            16950007
         DC    AL1(SF,PNA),C'HIT ENTER TO REFRESH INDEX'                17000007
PGHDRLTH EQU   *-PGHDR                                                  17050007
HITMSGS  DC    AL1(SBA),AL2(SML12P1),AL1(SF,PNA)                        17100007
         DC    C'HIT CLEAR KEY TO EXIT DEMF'                            17150007
HITMSGSL EQU   *-HITMSGS                                                17200007
HITMSGL  DC    AL1(SBA),AL2(L18P21),AL1(SF,PNA)                         17250007
         DC    C'HIT CLEAR KEY TO EXIT DEMF'                            17300007
HITMSGLL EQU   *-HITMSGL                                                17350007
INDEXSW  DC    X'00'           INDEX SWITCH 00=OFF  FF=ON               17400007
MOVE     MVC   3(1,OUTREG),2(MSGREG)                                    17450007
         LTORG                                                          17500007
MSG1     DC    AL2(MSG2-*)                                              17550007
         DC    AL1(SF,PNA),C'SS=0220',AL1(SF,PNA),C'  '                 17600007