         PRINT OFF                                                      00050007
         MACRO                                                          00050407
&NAME    BNGHJN &LABEL,&HJN                                             00050807
         LCLC  &HJA,&HJB                                                00051207
&HJA     SETC  '&SYSPARM'(1,4)                                          00051607
&HJB     SETC  '&SYSPARM'(5,4)                                          00052007
         AIF   ('&LABEL' EQ '').NOBRNCH                                 00052407
         B     &LABEL .                 BR AROUND CONSTANTS             00052807
         SPACE 2                                                        00053207
.NOBRNCH ANOP                                                           00053607
         AIF   ('&NAME' EQ '').NOLABEL                                  00054007
         DC    C'&NAME' .              MODULE IDENTIFIER                00054407
.NOLABEL ANOP                                                           00054807
         DC    X'&HJA' .                DATE OF MODIFICATION            00055207
         AIF   ('&HJN' NE 'HJN').DATE                                   00055607
         DC    X'&HJB' .                HJN OF MODIFICATION             00056007
.DATE    ANOP                                                           00056407
         AIF   ('&LABEL' EQ '').NOLBL                                   00056807
         SPACE 2                                                        00057207
&LABEL   DS    0H                                                       00057607
.NOLBL   ANOP                                                           00058007
         MEND                                                           00058407
         PRINT ON                                                       00058807
*********************************************************************** 00059207
*                                                                     * 00100000
* MODULE NAME = BNGT3270                                              * 00150000
*                                                                     * 00200000
* DESCRIPTIVE NAME = TCAM DEMF 3270 DISPLAY MODULE                    * 00250000
*                                                                     * 00300000
* COPYRIGHT = NONE                                                    * 00350000
*                                                                     * 00400000
* STATUS = RELEASE 1, LEVEL 1                                         * 00450000
*                                                                     * 00500000
* FUNCTION = 1) BNGT3270 IS LINKED TO BY BNGTDISP;                    * 00550000
*            2) HANDLES 3270 DISPLAY TERMINAL ERROR INFORMATION       * 00600000
*               REQUEST AND BITS PROMPTER REQUEST;                    * 00650000
*            3) ACCESSES SYS1.DEMFLOG DATA FILE AND COLLECTS THE      * 00700000
*               REQUESTED 3270 ERROR INFORMATION FROM IT;             * 00750000
*            4) FORMS OUTPUT MESSAGE AND WRITES IT TO THE 3270 DISPLAY* 00800000
*               TERMINAL; (ERR INFO AND SOME OF DISPLAY MESSAGES)     * 00850000
*            5) RETURNS CONTROL TO BNGTDISP.                          * 00900000
*                                                                     * 00950000
* NOTES = NONE                                                        * 01000000
*                                                                     * 01050000
*    DEPENDENCIES = NONE                                              * 01100000
*                                                                     * 01150000
*    RESTRICTIONS = NONE                                              * 01200000
*                                                                     * 01250000
*    REGISTER CONVENTIONS = R10 RECEIVES ADDRESS OF I/O MESSAGE AREA  * 01300000
*                           FROM BNGTDISP                             * 01350000
*                                                                     * 01400000
*    PATCH LABEL = NONE                                               * 01450000
*                                                                     * 01500000
* MODULE TYPE = TCAM DISPLAY                                          * 01550000
*                                                                     * 01600000
*    PROCESSOR = ASSEMBLER H                                          * 01650000
*                                                                     * 01700000
*    MODULE SIZE = 7623 DECIMAL BYTES                                 * 01750000
*                                                                     * 01800000
*    ATTRIBUTES = SERIALLY REUSABLE                                   * 01850000
*                                                                     * 01900000
* ENTRY POINT = BNGT3270                                              * 01950000
*                                                                     * 02000000
*    PURPOSE = SEE FUNCTION                                           * 02050000
*                                                                     * 02100000
*    LINKAGE = R1  LOADED WITH THE PARAM LIST POINTER                 * 02150000
*              R14 LOADED WITH THE RETURN ADDR (USED BY SUBROUTINE)   * 02200000
*              R15 LOADED WITH ENTRY POINT                            * 02250000
*                                                                     * 02300000
* INPUT = PARAM LIST ITEMS USED ARE :                                 * 02350000
*         IN MESSAGE ADDRESS  = TCAMFLDS (R10)                        * 02400000
*         IN MESSAGE COUNT    = VARIABLE (MAXIMUM=117 BYTES)          * 02450000
*                                                                     * 02500000
* OUTPUT = PARAM LIST ITEMS USED ARE :                                * 02550000
*         OUT MESSAGE ADDRESS = TIOADBAO (R10)                        * 02600000
*         OUT MESSAGE COUNT   = VARIABLE (MAXIMUM=2008 BYTES)         * 02650000
*                                                                     * 02700000
* EXIT-NORMAL = REGISTER 15 RETURN CODE RETURNED TO CALLER :          * 02750000
*               00 - OPERATION PERFORMED AS REQUESTED                 * 02800000
*                                                                     * 02850000
* EXIT-ERROR  = SYNAD ROUTINE AT LABEL - F1900                        * 02900000
*                                                                     * 02950000
* EXTERNAL REFERENCE = NONE                                           * 03000000
*                                                                     * 03050000
*    ROUTINES = LOCATE ROUTINE                                        * 03100000
*               GETTIOA ROUTINE (GET TERMINAL OUTPUT AREA)            * 03150000
*               BUOBR ROUTINE (BLOW-UP OBR ROUTINE)                   * 03200000
*               BUMDR ROUTINE (BLOW-UP MDR ROUTINE)                   * 03250000
*                                                                     * 03300000
*    DATA AREAS = SEE INPUT AND OUTPUT ABOVE                          * 03350000
*                                                                     * 03400000
*    CONTROL BLOCK = DCB (AT LABEL EMFILE)                            * 03450000
*                                                                     * 03500000
* TABLES = CALENDAR - CONVERT JULIAN DATE TO GREGORIAN DATE TABLE     * 03550000
*          LEAPTBL  - LEAP YEAR CALCULATION TABLE                     * 03600000
*          CCWTABL  - CONVERT 270X COMMAND CODE INTO ENGLISH          * 03650000
*          CSWTABL  - CONVERT LOCAL 327X STATUS OR 270X LINE STATUS   * 03700000
*                     INTO ENGLISH                                    * 03750000
*          SENSTABL - CONVERT 270X LINE SENSE CODE INTO ENGLISH       * 03800000
*          STATSTBL - CONVERT REMOTE 327X STATUS CODE INTO ENGLISH    * 03850000
*          SENS3272 - CONVERT LOCAL 327X SENSE CODE INTO ENGLISH      * 03900000
*          CCW3272  - CONVERT LOCAL 327X COMMAND CODE INTO ENGLISH    * 03950000
*          TPOPTBL  - CONVERT BTAM TP OP CODE INTO ENGLISH            * 04000000
*          TCAMPTOP - CONVERT TCAM TP OP CODE INTO ENGLISH            * 04050000
*          HXTOEB   - HEX CHARS TO EBCDIC CHARS TABLE                 * 04100000
*          EBTOHX   - EBCDIC CHARS TO HEX CHARS TABLE                 * 04150000
*                                                                     * 04200000
* MACROS = LINK, SAVE, RETURN, OPEN, READ, CHECK, CLOSE, TIME         * 04250000
*                                                                     * 04300000
******************CHANGE ACTIVITIES AS FOLLOWS:************************ 04350000
* CHANGE 01  11/15/77  PROLOGUE ADDED                                 * 04350107
* CHANGE 02  02/27/78  BNGHJN MACRO ADDED                             * 04350207
*A143000,287000                                                @OZ30478 04350307
*D144500-145000                                                @OZ30478 04350407
*C081500-089000                                                @OZ30675 04350507
*A207500,485000,543500                                         @OZ31884 04350607
*D636000-639000                                                @OZ31884 04350707
*                                                                     * 04400000
*                                                                     * 04450000
*********************************************************************** 04500000
R0       EQU   0                                                        04550000
R1       EQU   1              REGISTER ONE                              04600000
R8       EQU   8                                                        04650000
REG9     EQU   9                                                        04700000
BASE1    EQU   2                   1ST PROGRAM BASE REG.                04750000
BASE2    EQU   4                   2ND PROGRAM BASE REG.                04800000
TIOABAR  EQU   5                   TIOA POINTER.                        04850000
FIOABAR  EQU   6                   FIOA POINTER.                        04900000
DATAREG  EQU   7                   POINTER TO DATA IN EMF FILE BLOCK.   04950000
DATALOOP EQU   8                   LOOP REG FOR PROCESSING WITH DATAREG 05000000
OUTREG   EQU   9                   POINTER TO VARIABLE AREA IN TIOA.    05050000
LINKREG  EQU   11                  LOOP REG FOR PROCESSING WITH OUTREG. 05100000
OUTLOOP  EQU   12                  LINKAGE TO COMMON SUBROUTINES.       05150000
R14      EQU   14                                                       05200000
R15      EQU   15                                                       05250000
SBA      EQU   X'11'                                                    05300000
SF       EQU   X'1D'                                                    05350000
IC       EQU   X'13'                                                    05400000
UMN      EQU   X'41'               UNPROT,NORMAL,MODIFIED               05450000
UNA      EQU   X'40'                                                    05500000
PNA      EQU   X'60'                                                    05550000
UHA      EQU   X'C8'                                                    05600000
PDA      EQU   X'E8'                                                    05650000
PIA      EQU   X'6D'                                                    05700000
MNP      EQU   X'61'                                                    05750000
SML2P1   EQU   X'40E8'                                                  05800000
SML3P1   EQU   X'C150'                                                  05850000
SML4P1   EQU   X'C1F8'                                                  05900000
L1P1     EQU   X'4040'                                                  05950000
L2P1     EQU   X'C150'                                                  06000000
L3P1     EQU   X'C260'                                                  06050000
L4P1     EQU   X'C3F0'                                                  06100000
SML5P1   EQU   X'C260'   LINE 5 POSITION 1 FOR MOD-1 SCREEN             06150000
L1P36    EQU   X'40E3'                                                  06200000
L1P7     EQU   X'40C6'                                                  06250000
L3P39    EQU   X'C1F6'                                                  06300000
L2P79    EQU   X'C25E'                                                  06350000
L6P26    EQU   X'C6E9'                                                  06400000
TCAMOBR  EQU   X'34'                                                    06450000
BTAMOBR  EQU   X'30'                                                    06500000
TCAMFLDS DSECT                                                          06550000
         USING *,10                                                     06600000
TIOATDL  DC    X'0000'    TERMINAL DATA LENGTH                          06650000
TCTTETT  DS    CL1   91=REMOTE  99=LOCAL 3270                           06700000
TCTTETM  DS    CL1    F1=MODEL 1  F2=MODEL 2 3270                       06750000
TCTTEGU  DS    0H     EUATE LOCAL LINE ADDRESES                         06800000
TCTLERLN DS    CL3     LINE ADDRESS RELATIVE LINE #                     06850000
TCTTETA  DS    CL1   CONTROL UNIT ADDRESS                               06900000
         DS    CL1     TERNINAL ADDRESS REMOTE                          06950000
TIOADBA  DS    CL100        TERMINAL INPUT AREA                         07000000
TCTTETI  DS    CL8          TCAM  SYMBOLIC ADDRESS                      07050000
TIOWCC   DC    X'C3'       WRITE ERASE                                  07100000
TIOADBAO DS    CL2000     TERMINAL OUTPUT AREA                          07150000
         ORG   TIOADBA             POINT TO INPUT AREA                  07200000
SBA1     DS    CL3                 IST SBA POSITION                     07250000
CODE     DS    CL4                 TRANS CODE.                          07300000
SBA2     DS    CL3                 2ND SBA                              07350000
PGRM     DS    CL4                 PROGRAM NAME.                        07400000
SBA3     DS    CL3                 3RD SBA.                             07450000
FLP      DS    CL15                FIRST/LAST/PREVIOUS IF BLOWUP RQST.  07500000
SBA4     DS    CL3                 4TH SBA.                             07550000
BUX      DS    CL4                 X FOR BLOWUP REQUEST.                07600000
TIOITEM  DS    CL5                 ITEM ADDRESS TO BLOWUP.              07650000
         ORG   FLP                                                      07700000
         DS    C                   FOR FORWARD AND BACKWARD PAGE REQ XH 07750000
         DS    CL3                 ALTERNATE POSN FOR 4TH SBA           07800000
TIOFIRST DS    CL5                 BLK & SLT 1ST ITEM ON SCREN.         07850000
TIOLAST  DS    CL5                 BLK & SLT FOR LAST                   07900000
TIOPREV  DS    CL5                 BLK & SLT 1ST ITEM PREVIOUS SCREEN.  07950000
         DS    CL3                 5TH SBA                              08000000
RTNX     DS    C                   X FOR RETURN FROM BLOWUP             08050000
BNGTDISP DSECT                                                          08100000
         DS    4F                                              @OZ30675 08150007
         USING EMFILE,3                                        @OZ30675 08200007
EMFILE DCB DDNAME=EMFILE,DSORG=DA,MACRF=(RIC),OPTCD=R,                 X08950000
               RECFM=F                                                  09000000
SAVREG   DS    A                   RETURN SAVE AREA ADDRESS             09050000
SAVAREA  DS    18F                 DEMFDISP SAVE AREA                   09100000
TCAFCAAA DS    A                                                        09150000
TCTTEDA  DS    A                   ADDRESS OF PASSED FIELD              09200000
TCAPCPI  DC    CL8'00'    SYMBOLIC PROGRAM NAME TO LINK TO              09250000
TCAFCAA  DS    A                   FILE I/O AREA ADDRESS                09300000
         DS    0H                                                       09350000
TWAAREA  EQU   *        START OF TRANSACTION WORK AREA PAASE PARMS      09400000
PARM1    DS    D                   1ST INPUT FIELD.                     09450000
PARM2    DS    D                   2ND INPUT FIELD.                     09500000
PARM3    DS    D                   3RD INPUT FIELD.                     09550000
PARM4    DS    D                   4TH INPUT FIELD.                     09600000
PARM5    DS    D                   5TH INPUT FIELD.                     09650000
PARM6    DS    D                   6TH INPUT FIELD.                     09700000
TWASBAS  DS    PL1                 COUNT OF SBA'S IN INPUT MSG.         09750000
TWAREL   DS    CL3                 FILE CONTROL RELATIVE BLK ADDR.      09800000
         DS    CL3            SAVE AREA FOR LINE/CTRLREL BLOCK NO.      09850000
DUBLWD   DS    D                   WORK AREA                            09900000
TWATIOA  DS    F                   SAVE INPUT ADDRESS.                  09950000
TWATCTID DS    F                   SAVE TERML ID.                       10000000
TWASLOT  DS    F                   SLOT COUNTER.                        10050000
SAVE14   DS    F                   SAVE AREA.                           10100000
TWAOUT   DS    F                   SAVE OUTPUT HDR ADDR                 10150000
LINESZ   DS    H                   LINE SIZE (3277 MOD 1 OR MOD 2)      10200000
LINELOOP DS    H                   NBR LINE ITEMS PER LINESZ.           10250000
OUTSWCH  DS    C                                                        10300000
HXLINLIB DS    0CL6                LINE ADDRESS INCLUDING               10350000
         DS    C                                                        10400000
HEXLINE  DS    CL2                                                      10450000
HEXLIB   DS    CL3                                                      10500000
HEXCTRL  DS    C                   CTRL UNIT POLL CHAR.                 10550000
HEXTERM  DS    C                   TERML POLL CHAR.                     10600000
NEWFIRST DS    CL5                 SAVE AREA FOR OLD BLK & SLOT NBR.    10650000
NEWPREV  DS    CL5                 SAVE AREA FOR OLD BLK & SLOT NBR.    10700000
BITFIRST DS    CL5                 SAVE AREA FOR FIRST BLK & SLOT NBR.  10750000
BITLAST  DS    CL5                 SAVE AREA FOR LAST  BLK & SLOT NBR.  10800000
BITPREV  DS    CL5                 SAVE AREA FOR PREV  BLK & SLOT NBR.  10850000
        CNOP   0,4                                                      10900000
*                             IF 2ND SBA = L1P7                         10950000
         ORG   PARM6+X'70'         JUMP PAST DEMFDISP WORK AREA         11000000
WORK15   DS    CL5                                                      11050000
WORK16   DS    CL5                                                      11100000
         DS    CL6                                                      11150000
         DC    C'FILE I/O AREA'                                         11200000
         CNOP  0,4                                                      11250000
         USING *,FIOABAR                                                11300000
DFHFIOA  DS    0H      FILE I/O AREA ADDRESS                            11350000
FIOADBA  DC    4096X'00'        FILE INPUT AREA                         11400000
ENDDATA  DC    X'FFFFFFFF'     MARK END OF DATA                         11450000
         ORG   ENDDATA+8                                                11500000
PROGSTRT EQU   *                                                        11550000
         ORG   FIOADBA                                                  11600000
CTRLLAST DS    F                   LAST USED ADDR IN DATASET            11650000
CTRLTOTL DS    F                   TOTAL BLOCKS IN DATASET              11700000
CTRLBACK DS    F                   BACKWARD PTR IN CTRL BLK CHAIN       11750000
CTRLFWD  DS    F                   FORWARD PTR IN CTRL BLK CHAIN        11800000
CTRLENTS DS    C                   NBR ENTRIES IN THIS CTRL BLK         11850000
         DS    CL15                FOR FUTURE USE                       11900000
CTRLSLT1 DS    0C                  START OF CTRL SLOT NBR ONE.          11950000
         ORG  FIOADBA                                                   12000000
DATAPORT DS    CL6                 PORT & LIB ADDR                      12050000
DATATIME DS    CL4                 TIME BLOCK CREATED                   12100000
DATADATE DS    CL4                 DATE BLOCK CREATED                   12150000
DATAFWD  DS    CL3                 FORWARD CHAIN ADDR                   12200000
DATABACK DS    CL3                 BACKWAD CHAIN ADDR                   12250000
BLKLTH   DS    CL2                 NBR BYTES USED IN THIS BLOCK         12300000
         DS    CL10                                                     12350000
DATASLT1 DS    0C                  START OF 1ST DATA SLOT               12400000
DATASLOT DSECT                                                          12450000
         USING *,DATAREG                                                12500000
DATALTH  DS    C                   LTH OF THIS SLOT                     12550000
LINEID   DS    CL6                 LINE AND LIB ADDR                    12600000
ENTRYTYP DS    C                   ENTRY TYPE - MDR OR OBR              12650000
         DS    CL3                                                      12700000
MDRTYPE  DS    C                   TYPE HDWE - 03 EQUALS 3270           12750000
         DS    CL3                                                      12800000
DATE     DS    CL4                 DATE OF ERROR - 00YY0DDF             12850000
TIME     DS    CL4                 TIME OF ERROR - HHMMSSHH             12900000
         DS    CL8                                                      12950000
MDRCUA   DS    CL2                 MDR CHAN & UNIT ADDR                 13000000
MDRCTRL  DS    C                   MDR CTRL UNIT POLL ADDR              13050000
MDRTERM  DS    C                   MDR TERMIL POLL ADDR                 13100000
MDRSTATS DS    CL2                 REMOTE 3270 STATUS                   13150000
         DS    CL2                                                      13200000
OBRCCW   DS    CL8                 LAST CCW EXECUTED                    13250000
OBRCSW   DS    CL8                 CHANNEL STATUS WORD                  13300000
OBRDVDEP DS    CL1                                                      13350000
         DS    CL5                                                      13400000
OBRUCB   DS    C                                                        13450000
         DS    CL1                                                      13500000
OBRSDR   DS    CL1                 NUMBER BYTES OF STATICAL DATA        13550000
         DS    CL1                                                      13600000
OBRCUA   DS    CL2                 OBR CHAN & UNIT ADDR                 13650000
OBRPOLL  DS    CL2                 POLL CHAR                            13700000
         DS    CL12                                                     13750000
OBRSENSE DS    CL2                 OBR SENSE BYTES                      13800000
         ORG   DATALTH                                                  13850000
CTRLPORT DS    CL6                 PORT & LIB ADDRESS                   13900000
         DS    CL4                                                      13950000
CTRLFRST DS    CL3                 REL BLK ADDR 1ST BLK IN CHAIN.       14000000
         DS    CL3                                                      14050000
SLOTLTH  EQU   *-CTRLPORT                                               14100000
BNGT3270 CSECT                                                          14150000
         SAVE  (14,12)       SAVE CALLERS REGISTER                      14200000
         BALR  BASE1,0                                                  14250000
         USING *,BASE1,BASE2                                            14300000
BNGC3270 BNGHJN SKIPID                                         @OZ30478 14320007
         LA    BASE2,2048(BASE1)   SETUP PROGRAM BASE REGS.             14350000
         LA    BASE2,2048(BASE2)                                        14400000
A0000    ST    13,SAV3270R                                              14550000
         LA    13,SAV3270A                                              14600000
         L     TIOABAR,TCTTEDA     POINT TO TIOA INPUT AREA.            14650000
         L     FIOABAR,TCAFCAA  INITIALIZE FILE REG TO POINT FILE AREA  14700000
         OPEN  (EMFIL1,(INPUT))                                         14750000
         CP    TWASBAS,=P'2'       WERE LESS THAN 2 FIELDS INPUT?       14800000
         BNL   J010                NO. GO EXAMINE INPUT FURTHER.        14850000
A010     XC    TWAREL,TWAREL       YES. THIS IS A NEW RECAP REQUEST.    14900000
         CLC   PARM3(3),=C'ALL'    IF PARM 3 IS ONE OF THE DEMF         14950000
         BE    A140                DISPLAY CODES, THIS INPUT WAS FROM   15000000
         CLC   PARM3(4),=C'CTRL'          FORMATTED SCREEN.             15050000
         BE    A140                ZERO IT OUT AND TRY AGAIN.           15100000
         CLC   PARM3(4),=C'LINE'                                        15150000
         BE    A140                                                     15200000
         CLC   PARM3(4),=C'3270'                                        15250000
         BE    A140                                                     15300000
         CLC   PARM4(3),=C'ALL'                                         15350000
         BE    A130                                                     15400000
         CLC   PARM4(4),=C'CTRL'                                        15450000
         BE    A130                                                     15500000
         CLC   PARM4(4),=C'LINE'                                        15550000
         BE    A130                                                     15600000
         CLC   PARM4(4),=C'3270'                                        15650000
         BE    A130                                                     15700000
         CLC   PARM5(3),=C'ALL'                                         15750000
         BE    A120                                                     15800000
         CLC   PARM5(4),=C'CTRL'                                        15850000
         BE    A120                                                     15900000
         CLC   PARM5(4),=C'LINE'                                        15950000
         BE    A120                                                     16000000
         CLC   PARM5(5),=C'3270'                                        16050000
         BE    A120                                                     16100000
         OC    PARM3,PARM3         WAS LINE ID INPUT?                   16150000
         BNZ   B140                YES. GO SEARCH CTRL BLK FOR IT.      16200000
****************************************************************        16250000
*  THIS CODE INSERTS LINE, CTRL AND TERMINAL ADDRESS OF THE    *        16300000
*  TERMINAL OF THE USER IF HE ENTERS ONLY DEMF 3270                     16350000
****************************************************************        16400000
         MVC   DUBLWD+5(3),TCTLERLN     MOVE LINE ADDRESS TO WORK       16450000
         TR    DUBLWD,EBTOHX                 TR LINE ADDRESS            16500000
         PACK  DUBLWD(3),DUBLWD+5(4)        PACK IT                     16550000
         MVC   HEXLINE,DUBLWD        MOVE IT TO BE USED LATER           16600000
         MVC   HEXCTRL,TCTTETA                 MOVE IN CTRL UNIT        16650000
         MVC   HEXTERM,TCTTETA+1         MOVE IN TERMINAL ADDRESS       16700000
         MVC   PARM3(3),TCTLERLN             MOVE IN LINE NUMBER        16750000
         MVI   TCTLERLN,X'FF'      IND TO BNGTQEMF TCAMID SHOULD BE INS 16800000
         CLI   TCTTETT,X'99'            IS THIS A LOCAL 3270            16850000
         BE    D079                     YES,BR NOT CTRL AOR TERM ADR    16900000
         UNPK  DUBLWD,TCTTETA(2)                                        16950000
         TR    DUBLWD,HXTOEB                                            17000000
         MVC   PARM4(2),DUBLWD+5    MOVE IN CTRL ADDRESS                17050000
         UNPK  DUBLWD,TCTTETA+1(2)                                      17100000
         TR    DUBLWD,HXTOEB                                            17150000
         MVC   PARM5(2),DUBLWD+5       MOVE IN TERMINAL ADDRESS         17200000
         B     D079                                                     17250000
******************                                                      17300000
* THIS SECTION OF CODE SHOULD NOT BE ENTERED AS  SYMBOLIC               17350000
*    ADDRESS FOR TCAM DEMF ARE NOT SUPPORTED                            17400000
****************                                                        17450000
A120     XC    PARM5,PARM5                                              17500000