         PRINT OFF                                                      00050007
         MACRO                                                          00050407
&NAME    BNGHJN &LABEL,&HJN                                             00050807
         LCLC  &HJA,&HJB                                                00051207
&HJA     SETC  '&SYSPARM'(1,4)                                          00051607
&HJB     SETC  '&SYSPARM'(5,4)                                          00052007
         AIF   ('&LABEL' EQ '').NOBRNCH                                 00052407
         B     &LABEL .                 BR AROUND CONSTANTS             00052807
         SPACE 2                                                        00053207
.NOBRNCH ANOP                                                           00053607
         AIF   ('&NAME' EQ '').NOLABEL                                  00054007
         DC    C'&NAME' .              MODULE IDENTIFIER                00054407
.NOLABEL ANOP                                                           00054807
         DC    X'&HJA' .                DATE OF MODIFICATION            00055207
         AIF   ('&HJN' NE 'HJN').DATE                                   00055607
         DC    X'&HJB' .                HJN OF MODIFICATION             00056007
.DATE    ANOP                                                           00056407
         AIF   ('&LABEL' EQ '').NOLBL                                   00056807
         SPACE 2                                                        00057207
&LABEL   DS    0H                                                       00057607
.NOLBL   ANOP                                                           00058007
         MEND                                                           00058407
         PRINT ON                                                       00058807
*********************************************************************** 00059207
*                                                                     * 00100000
* MODULE NAME = BNGTQEMA                                              * 00150000
*                                                                     * 00200000
* DESCRIPTIVE NAME = TCAM DEMF QUEUE CONTROL MODULE                   * 00250000
*                                                                     * 00300000
* COPYRIGHT = NONE                                                    * 00350000
*                                                                     * 00400000
* STATUS = RELEASE 1, LEVEL 1                                         * 00450000
*                                                                     * 00500000
* FUNCTION = 1) DETERMINES WHETHER THE REQUEST PASSED OVER FROM MCP   * 00550000
*               IS 'DEMF' REQUEST, IF NOT, PASS CONTROL BACK TO MCP   * 00600000
*               WITH ERROR INDICATION;                                * 00650000
*            2) IF THE REQUEST IS 'DEMF', FORWARD DEMF MESSAGE QUEUE  * 00700000
*               TO MCP WHEN PASSING CONTROL BACK TO IT;               * 00750000
*            3) INITIATES SOME MESSAGE REQUESTS TO BNGTQEMF MODULE    * 00800000
*               FOR BEING DISPLAYED TO THE 3270 DISPLAY TERMINAL.     * 00850000
*                                                                     * 00900000
* NOTES = NONE                                                        * 00950000
*                                                                     * 01000000
*    DEPENDENCIES = NONE                                              * 01050000
*                                                                     * 01100000
*    RESTRICTIONS = NONE                                              * 01150000
*                                                                     * 01200000
*    REGISTER CONVENTIONS = SEE REGISTERS EQU'S BELOW                 * 01250000
*                                                                     * 01300000
*    PATCH LABEL = PATCH                                       @OY20942 01350007
*                                                                     * 01400000
* MODULE TYPE =  TCAM DISPLAY                                         * 01450000
*                                                                     * 01500000
*    PROCESSOR = ASSEMBLER H                                          * 01550000
*                                                                     * 01600000
*    MODULE SIZE =  972 DECIMAL BYTES                                 * 01650000
*                                                                     * 01700000
*    ATTRIBUTES =                                                     * 01750000
*                                                                     * 01800000
* ENTRY POINT = BNGTQEMA                                              * 01850000
*                                                                     * 01900000
*    PURPOSE = SEE FUNCTION                                           * 01950000
*                                                                     * 02000000
*    LINKAGE = R1  LOADED WITH THE PARAM LIST POINTER                 * 02050000
*              R14 LOADED WITH THE RETURN ADDR (USED BY SUBROUTINE)   * 02100000
*              R15 LOADED WITH ENTRY POINT                            * 02150000
*                                                                     * 02200000
* INPUT = PARAM LIST ITEMS USED ARE :                                 * 02250000
*                                                                     * 02300000
* OUTPUT = PARAM LIST ITEMS USED ARE :                                * 02350000
*                                                                     * 02400000
* EXIT-NORMAL = REGISTER 15 RETURN CODE RETURNED TO CALLER :          * 02450000
*               00 - OPERATION PERFORMED AS REQUESTED                 * 02500000
*                                                                     * 02550000
* EXIT-ERROR  = NONE                                                  * 02600000
*                                                                     * 02650000
* EXTERNAL REFERENCE = NONE                                           * 02700000
*                                                                     * 02750000
*    ROUTINES =                                                       * 02800000
*                                                                     * 02850000
*    DATA AREAS =                                                     * 02900000
*                                                                     * 02950000
*    CONTROL BLOCK = DCB                                              * 03000000
*                                                                     * 03050000
* TABLES = NONE                                                       * 03100000
*                                                                     * 03150000
* MACROS = RETURN                                                     * 03200000
*                                                                     * 03250000
* CHANGE ACTIVITIES AS FOLLOWS:                                       * 03300000
* CHANGE 01  11/15/77  PROLOGUE ADDED                                 * 03300107
* CHANGE 02  02/22/78  BNGHJN MACRO ADDED                             * 03300207
*C061000-062500,197000                                         @OZ29913 03300307
*A226500                                                       @OZ29913 03300407
*D198500                                                       @OZ29913 03300507
*C081000-085000,172500                                         @OZ29899 03300607
*C173500-174000                                                @OZ29898 03300707
*C013500                                                       @OY20942 03300807
*A088000,226820                                                @OY20942 03300907
*                                                                     * 03400000
*********************************************************************** 03450000
BNGTQEMA CSECT                                                          03500000
**********************************************************************  03550000
* THIS MODULE IS LINKED WITH THE USER MCP BY ISSUING THE MACRO          03600000
* DEMF IN A MESSAGE HANDLER.  IT IS PASSED A PARM FIELD IN THE          03650000
* DEMF MACRO,WHICH IT USES TO PASS TO THE DEMF DISPLAY PROGRAMS         03700000
* THE LINE ADDRESS THE MODEL TYPE AND WHETHER THE TERMINAL IS A         03750000
* LOCAL OR REMOTE DEVICE.                                               03800000
*  INPUT   REGISTER ONE ADDRESS OF PARM FIELD IN MCP                    03850000
*          ADDRESS OF BUFFER AT AVTADBUF IN AVT                         03900000
*  OUTPUT  HARDWARE ADDRESS, MODEL AND TYPE IN PARM FIELD IF DEMF       03950000
*  RETURN CODES                                                         04000000
*     NOT A DEMF REQUEST   RC8 BR TO NSI                                04050000
*     DEMF REQUEST         RC0 BR TO NSI +4                             04100000
**********************************************************************  04150000
R0       EQU   0                                                        04200000
R1       EQU   1                                                        04250000
R2       EQU   2                                                        04300000
RWK      EQU   2                                                        04350000
RSCB     EQU   3                   TCAM SCB REG                         04400000
RLCB     EQU   4                   TCAM LCB REG                         04450000
RWK2     EQU   5                                                        04500000
RBFR     EQU   6                   TCAM BUFFER REG                      04550000
R7       EQU   7                                                        04600000
R8       EQU   8                   EMF PARM REG                         04650000
RAVT     EQU   9                   TCAM AVT REG                         04700000
R10      EQU   10                                                       04750000
R11      EQU   11                                                       04800000
RBASE    EQU   12                  BASE REGISTER                        04850000
R13      EQU   13                                                       04900000
R14      EQU   14                                                       04950000
R15      EQU   15                                                       05000000
M3270    EQU   X'04'                                                    05050000
EMF327L  EQU   X'02'                                                    05100000
ENTKY    EQU   X'7D'                                                    05150000
SBA      EQU   X'11'                                                    05200000
RC8      EQU   8                   RETURN CODE WHEN DENO DEMF           05250000
R3270    EQU   X'91'                                                    05300000
L3270    EQU   X'99'                                                    05350000
MODONE   EQU   X'F1'                                                    05400000
UCBMONE  EQU   X'11'                                                    05450000
CVTOFF   EQU   16                                                       05500000
SOH      EQU   X'02'                                                    05550000
FOX0     EQU   240                                                      05600000
FOXONE   EQU   241                                                      05650000
FOXFOX   EQU   255                                                      05700000
MODTWO   EQU   242                                                      05750000
TERMSK   EQU   224                 MASK FOR TERMINAL IN TRM ENTRY       05800000
TRMLGB   EQU   128                 MASK FOR LGB INSTEAD OF TRM          05850000
TRMVTAM  EQU   16                  MASK FOR VTAM OR NCP TERMINAL ENTRY  05900000
         EJECT                                                          05950000
****  FOLLOWING IS INITILAZATION CODE FOR PROGRAM                       06000000
         USING BNGTQEMA,R15                                             06050000
BNGTQEMA BNGHJN GO                                             @OZ29913 06100007
         STM   R14,RBASE,12(R13)       SAVE CALLERS REGISTERS           06300000
         L     RAVT,CVTOFF             LOAD CVT ADDRESS                 06350000
         L     RAVT,AVTCVTPT(,RAVT)    LOAD TCX ADDRESS                 06400000
         L     RAVT,AVTZERO(,RAVT)     LOAD AVT ADDRESS                 06450000
         USING IEDQAVTD,RAVT                                            06500000
         LR    RBASE,R13              LOAD CALLERS ADDRESS              06550000
         LA    R13,72(R13)            LOAD MY SAVE ADDRESS              06600000
         ST    RBASE,4(R13)           CONTENTS OF RAVT STORED           06650000
         ST    R13,8(RBASE)           STORE SAVE ADDRESS                06700000
         L     RBFR,AVTADBUF          INIT BUFFER REG                   06750000
         USING IEDQPRF,RBFR                                             06800000
         L     RLCB,PRFLCB-1          INIT LCB REG                      06850000
         USING IEDQLCB,RLCB                                             06900000
         L     RSCB,LCBSCBA-1         SET UP SCB REG                    06950000
         USING IEDQSCB,RSCB                                             07000000
         LR    RBASE,R15              SWITCH BASE REGS                  07050000
         USING BNGTQEMA,RBASE                                           07100000
         DROP  R15                                                      07150000
         LR    R8,R1                  LOAD PARM REG                     07200000
         USING EMF,R8                                                   07250000
         EJECT                                                          07300000
****  FOLLOWING DETERMINES IF THIS IS A DEMF REQUEST AND IF SO, IS      07350000
****  IT FROM A 3270 TERMINAL.                                          07400000
         XC    0(10,R8),0(R8)         CLEAR PARM AREA                   07450000
         TM    PRFSTAT1,PRFTSMSG+PRFNHDRN   TSO OR TXT BFR?             07500000
         BNZ   NODEMF                 RETURN IF EITHER                  07550000
         TM    SCBSTATE,SCBLCK1N       IS TERMINAL LOCKED ?             07600000
         BO    NODEMF                  RETURN IF IT IS                  07650000
         LH    R1,PRFSRCE              GET SOURCE INDEX                 07700000
         N     R1,AVTCLRHI           IS IT ZERO                         07750000
         BZ    NODEMF                  RETURN IF SO                     07800000
         L     R15,AVTRNMPT            LOAD TNT LOOK-UP ADDRESS         07850000
         BALR  R14,R15                 DO TNT LOOK-UP                   07900000
         SR    R15,R15                 ZERO WORK REG                    07950000
         IC    R15,16(R1)              GET CH TABLE INDES               08000000
         BCTR  R15,0                   SUBTRACT ONE                     08050000
         SR    RWK2,RWK2               CLEAR REG               @OZ29899 08100007
         LA    RWK2,4                  LOAD REG WITH A FOUR (4)@OZ29899 08140007
         SR    RAVT,RWK2               BACK AVT UP FOUR (4)    @OZ29899 08180007
         CLI   2(RAVT),X'C1'           IS IT C'A' = TCAM10 ?   @OZ29899 08220007
         BE    TCAM10                  YES, BRANCH             @OZ29899 08260007
         SLL   R15,2                   NO, TCAM9, MULT BY FOUR @OZ29899 08300007
         B     CONT                                            @OZ29899 08340007
TCAM10   MH    R15,=H'6'               TCAM10, MULT BY SIX     @OZ29899 08380007
CONT     AR    RAVT,RWK2               RESTORE RAVT BACK       @OZ29899 08420007
         A     R15,AVTCSTCS            ADD TO START OF TABLE            08550000
         TM    1(R15),M3270            IS IT A 3270 ?                   08600000
         BZ    NODEMF                  NO, RETURN                       08650000
         TM    11(R1),TRMVTAM      IS THIS A NCP TERMINAL?              08700000
         BO    NODEMF              YES,DO NOT HONOR REQUEST             08750000
         LA    RWK,14                  LOAD MAX DISL TO SCAN            08800000
         SR    RWK2,RWK2                CLEAR REG FOR WORK     @OY20942 08805007
         LH    RWK2,PRFSIZE             GET LENGTH OF BUFFER   @OY20942 08810007
         CH    RWK2,MAXSIZE             MORE DATA THAN WE NEED @OY20942 08815007
         BH    DEFLEN                   YES, TAKE DEFAULT      @OY20942 08820007
         SH    RWK2,X1E                 REDUCE BY BUFFER HDR   @OY20942 08825007
         BNP   DEFLEN                     LENGTH FOR DATA LEN  @OY20942 08830007
         LR    RWK,RWK2                 SET UP SCAN REG        @OY20942 08835007
DEFLEN   EQU   *                                               @OY20942 08840007
         SR    RWK2,RWK2               CLEAR WORK REG                   08850000
         IC    RWK2,LCBISZE            GET IDLES                        08900000
         AR    RWK2,RBFR               ADD BUFFER ADDRESS               08950000
         LA    RWK2,42(0,RWK2)         ADD SIZE OF TCAM HDR             09000000
SECCMP   CLI   0(RWK2),ENTKY     IS THIS ENTER KEY                      09050000
         BE    FIRSTCMP            YES,BR                               09100000
         LA    RWK2,1(0,RWK2)      BUMP UP SCAN ADDRESS                 09150000
         BCT   RWK,SECCMP          DEC AND CONTINUE SCAN FOR ENTER KEY  09200000
         B     NODEMF              DID NOT HIT ENTER KEY                09250000
FIRSTCMP CLC   0(4,RWK2),DEMFCON       IS THIS EMF REQUEST              09300000
         BE    FNDEMF                  YES BR CONTINUE                  09350000
         CLC   0(4,RWK2),DEMFLOW       MAYBE IN LOWER CASE              09400000
         BE    FNDEMF                  YES,BR                           09450000
         LA    RWK2,1(0,RWK2)                                           09500000
         BCT   RWK,FIRSTCMP                                             09550000
         B     NODEMF                                                   09600000
         EJECT                                                          09650000
FNDEMF   EQU   *                                                        09700000
* AT THIS POINT WE HAVE DETERMINED THAT THIS MESSAGE IS A REQUEST       09750000
* FOR DEMF.  THIS MODULE WILL NOW INSERT CERTAIN INFORMATION IN THE     09800000
* PARM FIELD OF THE DEMF MACRO FOR THIS REQUEST                         09850000
*         IF THE REQUEST IS FROM A LOCAL 3270                           09900000
*             1. THE LINE ADDRESS                                       09950000
*             2. MODEL TYPE                                             10000000
*          IF THE REQUEST IS FROM A REMOTE 3270                         10050000
*              1. THE LINE ADDRESS                                      10100000
*              2. THE CONTROL UNIT POLL CHAR                            10150000
*              3. THE TERMINAL POLL CHAR                                10200000
* IF THE REQUEST IS FOR TERMINAL INFORMATION BY SYMBOLIC NAME, CHECKS   10250000
* ARE MADE IF THE REQUESTED INFORMATION IS FOR A TCAM TERMINAL WHOSE    10300000
* LINE IS OPENED AND NOT NCP.  IF SO, THE PARM FIELD OF THE DEMF MACRO  10350000
* IS OVERLAYED WITH THE HARDWARE ADDRESS AND MODEL TYPE OF THE REQUEST  10400000
**********************************************************************  10450000
         OC    0(4,RWK2),FORTY         MAKE IT UPPERCASE                10500000
         MVI   EMFSTAT,R3270           TURM ON REMOTE FLAG              10550000
         TM    2(R15),EMF327L          IS THIS A LOCAL                  10600000
         BZ    RMT3270                 NO BR ITS A REMOTE               10650000
         MVI   EMFSTAT,L3270           TURN ON LOCAL FLAG               10700000
*********    DETERMINE LINE ADDRESS AND STORE IT     *********          10750000
*********    IN PARM FIELD OF IEDEMFCB                          *****   10800000
RMT3270  SR    R7,R7                   CLEAR REGISTER                   10850000
         IC    R7,LCBUCBX              RELATIVE LINE NUMBER             10900000
         L     RWK,LCBDCBPT            GET DCB ADR                      10950000
         L     RWK,44(RWK)             LOAD ADR OF DEB                  11000000
         LA    RWK,32(RWK)             POINT TO LIST OF UCB             11050000
         LA    R7,1(R7)                BUMP BY ONE FOR BCT              11100000
DO574    BCT   R7,DO576                                                 11150000
         B     DO578                                                    11200000
DO576    LA    RWK,4(RWK)              BCT TO RLN UCB                   11250000
         B     DO574                                                    11300000
DO578    L     RWK,0(RWK)              POINT TO UCB                     11350000
         MVC   EMFLADR(3),13(RWK)      MOVE LINE ADR                    11400000
*********   FOLLOWING CODE FINDS MODEL TYPE OF 3270 FROM UCB   ****     11450000
         MVI   EMFMODEL,MODTWO         ASSUME 3277 MODEL TWO            11500000
         CLI   EMFSTAT,R3270           IS INPUT FROM A REMOTE 3270      11550000
         BE    MODEL2                  YES,BR MODEL NOT IN UCB          11600000
         TM    16(RWK),UCBMONE         IS IT A 3277 MODEL ONE           11650000
         BNO   MODEL2                  BR, IT IS A MODEL TWO            11700000
         MVI   EMFMODEL,MODONE         MAKE IT A MODEL ONE              11750000
MODEL2   EQU   *                                                        11800000
         EJECT                                                          11850000
*********  DETERMINE IF USER ENTERED TERMINAL SYMBOLIC NAME   ***       11900000
*********  AND IF SO CONVERT IT TO HARDWARE ADDRESS           ***       11950000
         LA    R7,12(0,RBFR)       BUFFER ADR PLUS PREFIX               12000000
         AH    R7,PRFSIZE          ADD DATA SIZE                        12050000
         SR    R7,RWK2             LGTH OF DATA ENTERED IN R7           12100000
         BNP   DO579               BR,IF R7 NOT PLUS NO DATA ENTERED    12150000
         STH   R7,LTHSAVE          SAVE LTH OF DATA ENTERED             12200000
         CLI   LTHSAVE+1,10        WAS MORE THAN 10 CHAR ENTERED        12250000
         BNH   DO579               BR,LESS THAN 11 CHAR ENTERED         12300000
         CLI   4(RWK2),SBA         IS IT FROM FORMATTED SCREEN?         12350000
         BNE   DO5781              BR,NO                                12400000
         LA    RWK2,2(0,RWK2)      ADD TWO FOR THE CU TERM POLL CHARS   12450000
         BCTR  R7,R0               SUBTRACT                             12500000
         BCTR  R7,R0               TWO FROM LTH ENTERED                 12550000
         STH   R7,LTHSAVE          SAVE IT                              12600000
         CLI   LTHSAVE+1,10        IS LTH GREATER THAN 10               12650000
         BNH   DO579               BR,NO NOT SYMBOLIC NAME CONVERT      12700000
DO5781   EQU   *                                                        12750000
         CLC   5(4,RWK2),=C'3270'  IS 3270 2ND PARM                     12800000
         BNE   DO579               BR,NO NEED TO CONVERT NAME           12850000
         CLI   10(RWK2),240        WAS A NUMERICAL LINE ENTERED         12900000
         BNL   DO579               BR,YES DO NOT CONVERT                12950000
         CLI   9(RWK2),SBA         IS IT SBA                            13000000
         BE    DO579               YES,BR DID NOT ENTER SYMBOLIC NAME   13050000
         LA    R11,10(0,RWK2)      POINT R11 TO SYMBOLIC NAME           13100000
         LA    RBFR,0(0,RBFR)      CLEAR HIGH ORDER BYTE                13150000
         SR    R11,RBFR            R11 HAS AMOUNT OF DATE TO SYM NAME   13200000
         LA    R10,12(0)           BUFFER PREFIX LGTH IN R10            13250000
         AH    R10,PRFSIZE         PLUS LGTH OF DATA ENTERED            13300000
         SR    R10,R11             MINUS LENGTH UP TO SYMBOLIC NAME     13350000
*                                 EQUALS LENGTH OF SYMBOLIC NAME IN R10 13400000
         BNP   DO579               BR, IF NOT PLUS DID NOT ENTER        13450000
*                                  SYMBOLIC NAME.  IF R10 IS PLUS IT    13500000
*                                  CONTAINS LENGTH OF NAME PLUS ANY     13550000
*                                  SPACES PLUS TRAILING LINE CONTROL    13600000
***   GETTING TO THIS POINT MEANS USER ENTERED A DEMF REQUEST BY        13650000
***   SYMBOLIC NAME. SO CHECK IT TO SEE IF WE CAN CONVERT IT TO A       13700000
***   HARDWARE ADDRESS.                                                 13750000
         SR    R7,R7               CLEAR FOR LATER USE                  13800000
         LA    R10,1(0,R10)        SET R10 UP ONE FOR BCT               13850000
         LA    RWK,10(0,RWK2)      POINT RWK TO SYMBOLIC NAME           13900000
RFOUND   L     R11,AVTRNMPT        TNT ADDRESS                          13950000
         USING IEDQTNT,R11         R11 WILL HAVE TNT PREFIX             14000000
         SR    R15,R15             CLEAR REG                            14050000
         IC    R15,TNTENLEN        MAXIMUM TERMNAME LTH IN R15          14100000
         CLR   R15,R10             IS MAX LTH GREATER THAN DATA ENTERED 14150000
         BNL   AGAIN               YES,BR LEAVE R10 AS IS               14200000
         LR    R10,R15             LIMIT SEARCH TO MAX TERMNAME LENGTH  14250000
AGAIN    LA    R7,1(0,R7)          ADD ONE TO LENGTH OF NAME ENTERED    14300000
         CLI   0(RWK),90           IS IT A VALID CHAR                   14350000
         BNL   NOTFOUND            BR,HAVE NOT FOUND LAST CHAR          14400000
         B     FOUND                                                    14450000
NOTFOUND LA    RWK,1(0,RWK)        LOOK AT NEXT CHAR                    14500000
         BCT   R10,AGAIN           BR,STILL GOT DATA TO LOOK AT         14550000
FOUND    BCTR  R7,R0               SUBTRACT ONE FOR EXEC MOVE           14600000
         BCTR  R7,R0               ONE MORE                             14650000
         CLR   R15,R7              MAKE SURE NAME ENTERED IS NOT        14700000
         BNL   NOREV               LONGER THAN MAXIMUM LENGTH           14750000
         LR    R7,R15              OF TERMINAL NAMES IN TCAMS TNT       14800000
         BCTR  R7,R0                                                    14850000
NOREV    EQU   *                                                        14900000
         MVC   SYMNAME,FORTY       CLEAR TO BLANKS                      14950000
         EX    R7,MVNAME           OR NAME INTO FIELD INTO UPPER CASE   15000000
         STC   R7,R7SAVE           SAVE LENGTH OF NAME FOR LATER USE    15050000
         ST    RWK2,RWK2SAVE       SAVE ADR OF DATA ENTERED FOR LATER   15100000
         SR    RWK,RWK             CLEAR                                15150000
         LH    RWK2,TNTLEN         GET NUMBER OF TERMINAL ENTRIES       15200000
         N     RWK2,AVTCLRHI       CLEAR LEFT HALF OF REGISTER          15250000
         SR    R10,R10             CLEAR                                15300000
         IC    R10,TNTENLEN        MAXIMUM TERMNAME LENGTH              15350000
         BCTR  R10,R0              SUB ONE FOR EXEC                     15400000
         LA    R7,TNTFIRST         GET FIRST ENTRY ADDRESS              15450000
         DROP  R11                                                      15500000
TESTTRM  EQU   *                                                        15550000
         LA    RWK,1(RWK)          UPDATE OFFSET CNTR                   15600000
         CR    RWK,RWK2            END OF TNT                           15650000
         BH    DO590               NO SYMBOLIC NAME IN TCAM TNT         15700000
         EX    R10,COMPNAME        COMPARE NAMES                        15750000
         BE    NAMEMAT             NAME                                 15800000
         LA    R7,4(R10,R7)        POINT TO NEXT ENTRY                  15850000
         B     TESTTRM             CHECK NEXT ENTRY                     15900000
NAMEMAT  EQU   *                                                        15950000
***   GETTING TO HERE MEANS USER ENTERED A SYMBOLIC NAME THAT IS IN     16000000
***   TCAM TERMINAL NAME TABLE.  SO CHECK TO SEE IF IT IS A TCAM        16050000
***   TERMINAL THAT WE CAN CONVERT TO A HARDWARE ADDRESS.               16100000
         LA    R7,0(R7,R10)        ADD LENGTH TO GET ADR OF TRM         16150000
         MVC   TERMADR,0(R7)       MOVE ADR TO WORD FOR LOAD            16200000
         L     R10,TERMADR         TERMINAL TRM IN REG10                16250000
*              CHECK TO ENSURE THIS IS A TERMINAL ENTRY                 16300000
         CLI   5(R10),TRMLGB       IS THIS A NCP LGB                    16350000
         BE    FO2                 BR,YES A NCP TERMINAL DONOT CONVERT  16400000
         TM    11(R10),TRMVTAM     IS THIS A VTAM TERMINAL ENTRY        16450000