         PRINT OFF                                                      00050007
         MACRO                                                          00050407
&NAME    BNGHJN &LABEL,&HJN                                             00050807
         LCLC  &HJA,&HJB                                                00051207
&HJA     SETC  '&SYSPARM'(1,4)                                          00051607
&HJB     SETC  '&SYSPARM'(5,4)                                          00052007
         AIF   ('&LABEL' EQ '').NOBRNCH                                 00052407
         B     &LABEL .                 BR AROUND CONSTANTS             00052807
         SPACE 2                                                        00053207
.NOBRNCH ANOP                                                           00053607
         AIF   ('&NAME' EQ '').NOLABEL                                  00054007
         DC    C'&NAME' .              MODULE IDENTIFIER                00054407
.NOLABEL ANOP                                                           00054807
         DC    X'&HJA' .                DATE OF MODIFICATION            00055207
         AIF   ('&HJN' NE 'HJN').DATE                                   00055607
         DC    X'&HJB' .                HJN OF MODIFICATION             00056007
.DATE    ANOP                                                           00056407
         AIF   ('&LABEL' EQ '').NOLBL                                   00056807
         SPACE 2                                                        00057207
&LABEL   DS    0H                                                       00057607
.NOLBL   ANOP                                                           00058007
         MEND                                                           00058407
         PRINT ON                                                       00058807
*********************************************************************** 00059207
*                                                                     * 00100000
* MODULE NAME = BNGTQEMF                                              * 00150000
*                                                                     * 00200000
* DESCRIPTIVE NAME = TCAM DEMF MESSAGE QUEUE CONTROL MODULE           * 00250000
*                                                                     * 00300000
* COPYRIGHT = NONE                                                    * 00350000
*                                                                     * 00400000
* STATUS = RELEASE 1, LEVEL 1                                         * 00450000
*                                                                     * 00500000
* FUNCTION = 1) GETS INPUT MESSAGES FROM TCAM MESSAGE QUEUE(BNGTIN);  * 00550000
*            2) ACQUIRES STORAGE FOR BOTH INPUT AND OUTPUT MESSAGES   * 00600000
*               (2117 BYTES);                                         * 00650000
*            3) MOVES INPUT MESSAGE TO NEWLY ACQUIRED STORAGE AREA;   * 00700000
*            4) LINKS TO BNGIDISP WITH ADDRESS OF NEW STORAGE AREA;   * 00750000
*            5) WHEN CONTROL RETURNS TO BNGTQEMF, PUTS MESSAGE TO     * 00800000
*               OUTPUT MESSAGE QUEUE(BNGTQ) TO 3277 DISPLAY TERMINAL. * 00850000
*                                                                     * 00900000
* NOTES = NONE                                                        * 00950000
*                                                                     * 01000000
*    DEPENDENCIES = NONE                                              * 01050000
*                                                                     * 01100000
*    RESTRICTIONS = NONE                                              * 01150000
*                                                                     * 01200000
*    REGISTER CONVENTIONS = R10 CONTAINS ADDRESS OF I/O MESSAGE       * 01250000
*                                                                     * 01300000
*    PATCH LABEL = PATCH                                       @OY20942 01350007
*                                                                     * 01400000
* MODULE TYPE = TCAM MESSAGE QUEUE CONTROL                            * 01450000
*                                                                     * 01500000
*    PROCESSOR = ASSEMBLER H                                          * 01550000
*                                                                     * 01600000
*    MODULE SIZE = 1775 DECIMAL BYTES                                 * 01650000
*                                                                     * 01700000
*    ATTRIBUTES =                                                     * 01750000
*                                                                     * 01800000
* ENTRY POINT = BNGTQEMF                                              * 01850000
*                                                                     * 01900000
*    PURPOSE = SEE FUNCTION                                           * 01950000
*                                                                     * 02000000
*    LINKAGE = R14 LOADED WITH THE RETURN ADDR (USED BY SUBROUTINE)   * 02050000
*                                                                     * 02100000
* INPUT = PARAM LIST ITEMS USED ARE :                                 * 02150000
*         INPUT MESSAGE (MAX 117 BYTES)                               * 02200000
*                                                                     * 02250000
* OUTPUT = PARAM LIST ITEMS USED ARE :                                * 02300000
*         OUTPUT MESSAGE (MAX = 2008 BYTES)                           * 02350000
*                                                                     * 02400000
* EXIT-NORMAL = REGISTER 15 RETURN CODE RETURNED TO CALLER :          * 02450000
*               00 - OPERATION PERFORMED AS REQUESTED                 * 02500000
*                                                                     * 02550000
* EXIT-ERROR  = SYNAD ROUTINE AT LABEL - SNNAD                        * 02600000
*                                                                     * 02650000
* EXTERNAL REFERENCE = NONE                                           * 02700000
*                                                                     * 02750000
*    ROUTINES = NONE                                                  * 02800000
*                                                                     * 02850000
*    DATA AREAS = NONE                                                * 02900000
*                                                                     * 02950000
*    CONTROL BLOCK = DCB                                              * 03000000
*                                                                     * 03050000
* TABLES = NONE                                                       * 03100000
*                                                                     * 03150000
* MACROS = DCBD, OPEN, CLOSE, WTO, FREEMAIN, ABEND, LINK, GETMAIN     * 03200000
*                                                                     * 03250000
* CHANGE ACTIVITIES AS FOLLOWS:                                       * 03300000
* CHANGE 01  11/15/77  PROLOGUE ADDED                                 * 03300107
* CHANGE 02  02/22/78  BNGHJN MACRO ADDED                             * 03300207
*C061500-063000,082000                                         @OX21274 03300307
*C013500,068500,123000,124000,155500                           @OY20942 03300407
*D125500                                                       @OY20942 03300507
*A126000,126500,158500                                         @OY20942 03300607
*                                                                     * 03400000
*********************************************************************** 03450000
BNGTQEMF CSECT                                                          03500000
R0       EQU   0                                                        03550000
R1       EQU   1                                                        03600000
RWK      EQU   2                                                        03650000
RWK3     EQU   3                                                        03700000
RWK4     EQU   4                                                        03750000
R4       EQU   4                                                        03800000
RIN      EQU   5                                                        03850000
R5       EQU   5                                                        03900000
ROUT     EQU  10                                                        03950000
RINDCB   EQU   7                                                        04000000
ROUTDCB  EQU   8                                                        04050000
RLNK     EQU   9                                                        04100000
RBASE    EQU   12                                                       04150000
RSAVE    EQU   13                                                       04200000
RRET     EQU   14                                                       04250000
RFOX     EQU   15                                                       04300000
GOODOPEN EQU   16                                                       04350000
SEVETEEN EQU   0017                                                     04400000
SBA      EQU   X'11'                                                    04450000
L1P1     EQU   X'4040'                                                  04500000
SF       EQU   X'1D'                                                    04550000
UNA      EQU   X'40'                                                    04600000
UDM      EQU   X'C1'                                                    04650000
PI       EQU   X'E8'                                                    04700000
IC       EQU   X'13'                                                    04750000
L2P1     EQU   X'C150'             3270 LINE2 COLUMN1                   04800000
L3270    EQU   X'99'               LOCAL 3270 MASK                      04850000
ENTKY    EQU   X'7D'               3270 ENTER KEY MASK                  04900000
FOX0     EQU   240                                                      04950000
FOXONE   EQU   241                 MASK TO INDICATE DEMF 3270 ENTERED   05000000
FOXFOX   EQU   255                 MASK TO INDICATE 2ND BYTE IS SW.     05050000
STX      EQU   X'02'               MASK FOR STX                         05100000
RESKYBD  EQU   X'C3'               MASK FOR WCC CHAR TO RESET KEYBOARD  05150000
         EJECT                                                          05200000
*                                                                       05250000
*        THIS MODULE RUNS AS A APPLICATION PROGRAM OF TCAM.  IT CAN BE  05300000
*        ATTACHED IN THE MCP AT INITILAZATION TIME OR RUN AS A          05350000
*        SEPARATE TASK.                                                 05400000
*********  FOLLOWING MUST BE CODED IN USER MCP                    ****  05450000
*        BNGTPCB    PCB    BUFSIZE=502,MH=BNGTMH,BUFIN=4                05500000
*        BNGTQ    TPROCESS   PCB=BNGTPCB              DEMF PCB FOR PUT  05550000
*        BNGTIN   TPROCESS   PCB=BNGTPCB,QUEUES=MO    DEMF FOR GET      05600000
*********  FOLLOWING DD CARDS MUST BE IN JCL THAT STARTS THIS TASK **** 05650000
*        //BNGTINE  DD QNAME=BNGTIN                                     05700000
*        //BNGTOTE  DD QNAME=BNGTQ                                      05750000
*********************************************************************** 05800000
*                                                                       05850000
         EJECT                                                          05900000
***    INITILAZATION CODE                                               05950000
         STM   RRET,RBASE,12(RSAVE)    SAVE CALLERS REGS                06000000
         LR    RBASE,RFOX              SET MY BASE                      06050000
         USING BNGTQEMF,RBASE                                           06100000
BNGTQEMF BNGHJN SKIPID                                         @OX21274 06150007
         LA    RFOX,SAVE               POINT TO MY SAVE AREA            06350000
         ST    RSAVE,4(RFOX)           STORE HIS SAVE ADDR IN MINE      06400000
         ST    RFOX,8(RSAVE)           STORE MY SAVE ADDR IN HIS        06450000
         LR    RSAVE,RFOX              SET UP MY SAVE REG               06500000
         OPEN  (OUTDCB,(OUTPUT))     OPENOUTPUT DCB                     06550000
         LA    ROUTDCB,OUTDCB          LOAD DCB ADDRESS                 06600000
         USING IHADCB,ROUTDCB                                           06650000
         TM    DCBOFLGS,GOODOPEN    WAS OPEN GOOD                       06700000
         BO    NEXT                    YES,BRANCH                       06750000
OPENERR  WTO   'BNG402I T OPEN FAILED FOR DEMF'                         06800000
         B     CLOSDWN                  SHUTDOWN               @OY20942 06850007
NEXT     OPEN (INDCB,(INPUT))                                           06900000
         DROP  ROUTDCB                                                  06950000
         LA    RINDCB,INDCB        SET UP INPUT DCB REG                 07000000
         USING IHADCB,RINDCB                                            07050000
         TM    DCBOFLGS,GOODOPEN                                        07100000
         BNO   OPENERR                                                  07150000
OPENOK   EQU   *                                                        07200000
         WTO  'BNG400I  T DEMF SUBTASK ACTIVE'                          07250000
         EJECT                                                          07300000
***   WAIT HERE IN THE TCAM GET ROUTINE UNTIL TCAM PUTS A DEMF          07350000
***   REQUEST MESSAGE ON OUR QUEUE.                                     07400000
GET      GET   INDCB,INPUT             GET MESSAGE                      07450000
         B     READTAB(RFOX)       CHECK GOOD RETURN                    07500000
READTAB  B     GETMAIN             R/C 0 GOOD READ CONTINUE             07550000
         B     READER              R/C 4 SHOULD NOR OCCUR               07600000
         B     READER              R/C 8 SHOULD NOT OCCUR               07650000
         B     READER              R/C C SHOULD NOT OCCUR               07700000
         B     READER              R/C 10 BLKSIZE =0 OR LRECL=0         07750000
         B     REOPEN              R/C 14 TCAM CLOSED QUE               07800000
         DC    3F'0'               IN CASE MORE RETURN CODES PC         07850000
REOPEN   CLOSE INDCB               TCAM CLOSED QUE SO WE HAVE TO        07900000
         OPEN  (INDCB,(INPUT))     CLOSE DCB AND REOPEN                 07950000
         B     GET                 CONTINUE                             08000000
         EJECT                                                          08050000
***   WE HAVE A DEMF REQUEST. GET STORAGE NEEDED BY THE DISPLAY         08100000
***   PROGRAMS TO WRITE TO THE TERMINAL.                                08150000
GETMAIN  EQU   *                                               @OX21274 08200007
         GETMAIN  R,LV=2117        GET STORAGE FOR OUTPUT               08250000
         LR    ROUT,R1           SET UP OUTPUT REG OF GOTTEN STORAGE    08300000
**              FOLLOWING FIVE INSTRUCTIONS CLEAR INPUT AREA            08350000
         LR    R0,R1               ADDR OF FIELD TO BE CLEARED          08400000
         LA    R1,117              LENGTH OF FIELD TO CLEAR             08450000
         L     R5,=X'00000001'     LENGHT AND PADDING CHAR              08500000
         LA    R4,ZERO             FILL CHAR                            08550000
         MVCL  0,R4                CLEAR FIELD                          08600000
         LA    RIN,INPUT           GET INPUT I/O AREA                   08650000
         USING INDSECT,RIN                                              08700000
         USING OUTDSECT,ROUT                                            08750000
         MVC   EMFDATA,INAREA        MOVE PARM FIELDS TO FORMAT SECT    08800000
         MVC   EMFNAME,INNAME      MOVE NAME OF TERML TO PARM           08850000
         MVI   EMFOTDAD,RESKYBD    WCC OF C3 TO RESET KEYBOARD          08900000
         CLI   INLADR,FOXFOX       IS 2ND BYTE A SWITCH                 08950000
         BE    MSGOUT              YES,BR PUT OUT ERROR MESSAGE         09000000
         TM    TSWITCH,FOX0        IS THIS BYTE A SWITCH TO INDICATE    09050000
*                                  USER ENTERED SYMBOLIC NAME AND WE    09100000
*                                  MUST BLANK IT OUT OF THE DATA STREAM 09150000
*                                  AND SAVE IT.                         09200000
         BO    SYMBOLIC            BR,YES                               09250000
FO9      SR    RWK,RWK             CLEAR WORK REG                       09300000
         LH    RWK,DCBLRECL        GET RECORD LENGTH IN REG             09350000
         LA    RWK3,SEVETEEN       ADD HEADER+8 FOR NAME+9 FOR PARM     09400000
         CLI   INDATA,SBA          IS FIRST BYTE SBA                    09450000
         BE    BYPASS              YES,BR SET CORRECTLY NOW             09500000
         CLI   INDATA,ENTKY        IS FIRST BYTE ENTER KEY              09550000
         BE    ADDTHREE            YES,BR                               09600000
         CLI   INDATA,STX          IS FIRST BYTE OF DATA STX            09650000
         BE    ADDSIX              YES,BR                               09700000
         B     ADDFIVE             MUST BE CUA,TA,ENTKY,BA,BA           09750000
ADDSIX   LA    RWK3,1(RWK3)        STX,CUA,TA,ENTKY,BA,BA               09800000
ADDFIVE  LA    RWK3,2(RWK3)            CUA,TA,ENTKY,BA,BA               09850000
ADDTHREE LA    RWK3,3(RWK3)                   ENTKY,BA,BA               09900000
BYPASS   SR    RWK,RWK3            GET REAL INPUT LENGTH                09950000
         STH   RWK,EMFSIZE         MOVE IN SIZE FOR SCREEN FORMAT       10000000
         AR    RWK3,RIN            POINT RWK3 TO FIRST BYTE TO BE MOVED 10050000
         BCTR  RWK,0               SUB ONE FOR EXEC'D MOVE              10100000
         EX    RWK,EXECMVE         MOVE DATA                            10150000
         EJECT                                                          10200000
         LINK  EP=BNGTDISP         LINK TO DEMF SCREEN FORMAT PROGRAM   10250000
         TM    TSWITCH,FOX0        IS THE SYMBOLIC NAME SWITCH SET      10300000
         BO    GO1                 BR,YES                               10350000
         CLI   EMFLADR,X'FF'       DO WE NEED TO INSERT TCAMID=?        10400000
         BE    F10                 YES,BR - SET BY BNGT3270             10450000
GO9      SR    RWK,RWK             CLEAR                                10500000
         LH    RWK,EMFSIZE         GET SIZE                             10550000
         LA    RWK,9(0,RWK)        ADD NINE FOR WCC CHAR AND 8 BYTE     10600000
         DROP  RINDCB                  TERMINAL NAME                    10650000
         USING IHADCB,ROUTDCB                                           10700000
WRITE1   STH   RWK,DCBLRECL           STORE SIZE TO WRITE IN DCB        10750000
WRITE    PUT   OUTDCB,EMFWRITE         WRITE DATA TO TERMINAL           10800000
         B     TABLE(RFOX)             TABLE OF RETURN CODES            10850000
TABLE    B     RELCORE                 WRITE WAS SUCCESSFUL             10900000
         B     CLOSDWN                 MCP HAS CLOSED DOWN              10950000
         B WRITER                      SHOULD NOT OCCUR                 11000000
         B INVTERM                     TERMINAL NAME INVALID            11050000
         B     WRITE                   WRITE WAS BUSY RETRY             11100000
         DC    3F'0'                   JUST IN CASE MORE RETURN CODES   11150000
RELCORE  LR    R1,ROUT                 INIT R1 FOR FREEMAIN             11200000
         FREEMAIN  R,LV=2117,A=(1)                                      11250000
         B     GET                                                      11300000
SYMBOLIC SR    RWK,RWK             CLEAR                                11350000
         MVC   SYMLTH,TSIZE        MOVE SIZE TO AREA                    11400000
         NC    SYMLTH,ZEROFOX      REMOVE SWITCH INDICATOR BYTES        11450000
         IC    RWK,SYMLTH          LTH OF NAME ENTERED MINUS ONE        11500000
         SR    RWK4,RWK4           CLEAR                                11550000
         LA    RWK4,TDATA          POINT RWK4 TO INPUT AREA             11600000
FO1      CLC   0(4,RWK4),=C'3270'  IS THIS 3270                         11650000
         BE    FO2                 BR,YES                               11700000
         LA    RWK4,1(0,RWK4)      LOOK AT NEXT BYTE                    11750000
         B     FO1                                                      11800000
FO2      MVC   FO6,FORTYS                                               11850000
         EX    RWK,FO3                                                  11900000
         EX    RWK,FO4                                                  11950000
         B     FO9                                                      12000000
FO3      MVC   FO6(0),5(RWK4)                                           12050000
FO4      MVC   5(0,RWK4),FORTYS                                         12100000
EXECMVE  MVC   EMFINDAT(0),0(RWK3)     MOVE DATA TO FORMAT INPUT AREA   12150000
         EJECT                                                          12200000
READER   WTO   'BNG403I T READ ERROR FILE INDCB PGM=BNGTQEMF'           12250000
         B     CLOSDWN                  SHUTDOWN               @OY20942 12300007
WRITER   WTO   'BNG404I T WRITE ERROR FILE OUTDCB PGM=BNGTQEMF'         12350000
         B     CLOSDWN                  SHUTDOWN               @OY20942 12400007
INVTERM  EQU   *                                                        12450000
         WTO   'BNG405I T INVALID TCAM TERMINAL NAME'                   12500000
CLOSDWN  EQU   *                                                        12600000
         DROP  ROUTDCB                                         @OY20942 12608007
         LA    RINDCB,INDCB             GET DCB ADDRESS        @OY20942 12616007
         USING IHADCB,RINDCB                                   @OY20942 12624007
         TM    DCBOFLGS,GOODOPEN        IS DATA SET OPEN       @OY20942 12632007
         BNO   CKOUT                    NO, DON'T CLOSE THEN   @OY20942 12640007
         CLOSE INDCB                                                    12650000
CKOUT    EQU   *                                               @OY20942 12657007
         DROP  RINDCB                                          @OY20942 12664007
         LA    ROUTDCB,OUTDCB           GET DCB ADDRESS        @OY20942 12671007
         USING IHADCB,ROUTDCB                                  @OY20942 12678007
         TM    DCBOFLGS,GOODOPEN        IS DATA SET OPEN       @OY20942 12685007
         BNO   EXIT                     NO, DON'T CLOSE THEN   @OY20942 12692007
         CLOSE OUTDCB                                                   12700000
EXIT     EQU   *                                                        12750000
         WTO   'BNG401I T DEMF SUBTASK CLOSED DOWN'                     12800000
         L     RSAVE,4(RSAVE)          GET CALLERS SAVE                 12850000
         LM    RRET,RBASE,12(RSAVE)    RESTORE CALLERS REGS             12900000
         SR    RFOX,RFOX               DO RETURN CODE THING             12950000
         BR    RRET                    RETURN TO CALLER                 13000000
SNNAD    EQU   *                                                        13050000
         CLOSE INDCB                                                    13100000
         OPEN  (INDCB,(INPUT))                                          13150000
         B     GETMAIN                                                  13200000
         EJECT                                                          13250000
F10      MVC   FO6,INNAME          MOVE INPUT TERMINAL NAME             13300000
GO1      LA    RWK,131(ROUT)       POINT TO SYMBOLIC NAME IN OUTPUT     13350000
         CLC   135(7,ROUT),=C'BNG011I' IS IT MSG11 ERROR MSG?           13400000
         BE    GO3                 YES.                                 13450000
         CLC   135(7,ROUT),=C'BNG012I' IS IT MSG12 ERROR MSG?           13500000
         BE    GO2                 YES.                                 13550000
         MVC   38(16,RWK),TCAMID   MOVE IN SYMBOLIC NAME FOR 3270 SCR   13600000
         B     GO9                                                      13650000
GO2      MVC   70(16,RWK),TCAMID   MOVE IN SYMBOLIC NAME MSG12          13700000
         B     GO9                                                      13750000
GO3      MVC   107(16,RWK),TCAMID  MOVE IN SYMBOLIC NAME MSG11          13800000
         B     GO9                                                      13850000
         EJECT                                                          13900000
MSGOUT   EQU   *         THIS ROUTINE IS ENTERED WHEN THE SWITCH        13950000
***                      INDICATE A INVALID SYMBOLIC NAME HAS BEEN      14000000
***                      ENTERED AND WE WILL SEND A MESSAGE BACK TO     14050000
***                     THE USER TERMINAL.                              14100000
         NI    MSGNUM+2,FOX0       TURN OFF LOW ORDER BITS              14150000
         OC    MSGNUM+2(1),EMFLADR+1    MOVE MSG NO. TO OUTPUT          14200000
         SR    RWK,RWK             CLEAR                                14250000
         IC    RWK,EMFLADR+1                                            14300000
         BCTR  RWK,R0              SUB ONE                              14350000
         MH    RWK,THIRTY8         MULT BY MSG LENGTH                   14400000
         LA    RWK,MSG1(RWK)       GET ADR OF MSG                       14450000
         MVC   EMFOTDAE+MSGLTH(MSG1LTH),0(RWK)  MOVE MSG TO OUTPUT      14500000
         MVC   MSGTERM,FORTYS      CLEAR NAME AREA TO BLANKS            14550000
         LA    RWK,INPUT+17        POINT REG TO INPUT AREA              14600000
         LA    R1,25               SET UP R1 TO LIMIT SCAN              14650000
RETRY    CLC   0(4,RWK),=C'3270'   IS IT 3270                           14700000
         BE    DO1                 YES,BR FOUND INPUT                   14750000
         LA    RWK,1(0,RWK)        ADD ONE TO INPUT POINTER             14800000
         BCT   R1,RETRY            LOOK AT NEXT POSITIONS OF INPUT      14850000
         B     DO3                 DID NOT FIND VALID NAME EXIT         14900000
DO1      CLI   5(RWK),X'4F'        IS A VALID SYMBOLIC                  14950000
         BL    DO3                 NO,BR EXIT                           15000000
         SR    RWK3,RWK3           CLEAR                                15050000
         IC    RWK3,EMFLADR+2      INSERT TRM NAME LENGTH MINUS ONE     15100000
         EX    RWK3,DO2            MOVE TRM NAME TO OUTPUT AREA         15150000
DO3      MVC   EMFOTDAE(MSGLTH),MSG  MOVE MSG HDR TO OUTPUT AREA        15200000
         LA    RWK,79              PUT MSG LENGTH IN DCB                15250000
         B     WRITE1                                                   15300000
DO2      MVC   MSGTERM(0),5(RWK) EXED INST TO MOVE TRM NAME             15350000
         EJECT                                                          15400000
INDCB    DCB   BLKSIZE=117,DDNAME=BNGTINE,DSORG=PS,LRECL=117,          X15450000
               MACRF=GM,OPTCD=WU,RECFM=U,                              X15500000
               EODAD=CLOSDWN,SYNAD=SNNAD,BUFL=117              @OY20942 15550007
OUTDCB   DCB   RECFM=U,                MESSAGE PROCESSING              X15600000
               DDNAME=BNGTOTE,         DD CARD MUST BE THIS NAME       X15650000
               DSORG=PS,               TCAM DCB                        X15700000
               LRECL=2008,             MESSAGE LENGTH ,WILL GET CHAMGE X15750000
               MACRF=PM,         PUT USED                              X15800000
               OPTCD=WU                MUST HAVE DESTINATION NAME       15850000
PATCH    DS    20F                                             @OY20942 15870007
         EJECT                                                          15900000
SAVE     DC    18F'0'                                                   15950000
ZERO     DC    X'00000000'                                              16000000
FORTYS   DC    CL9'         '                                           16050000
INPUT    DC    CL117'0'                                                 16100000
         ORG   INPUT                                                    16150000
TNAME    DS    CL8                                                      16200000
TSWITCH  DS    CL1                                                      16250000
         ORG   TSWITCH                                                  16300000
TSIZE    DS    CL2                                                      16350000
TSTAT    DS    CL1                                                      16400000
TMODEL   DS    CL1                                                      16450000