         MACRO                                                          01000000
&NAME    BRING &LOAD=,&CALL=,&DELETE=,&LIST=,&C=                        02000000
         LCLA  &A,&B,&K,&L                                              03000000
         LCLC  &MOD,&MOD1                                               04000000
&B       SETA  &C+1                                                     05000000
&L       SETA  0                                                        06000000
&A       SETA  &C/8*128                                                 07000000
*/*           TO LOAD, LOAD & CALL, OR DELETE A MODULE       @ZM00952*/ 07040003
*/*PARAMETERS-                                               @ZM00952*/ 07080003
*/*      LOAD=(MODNAME)                                      @ZM00952*/ 07120003
*/*      CALL=(MODNAME)                                      @ZM00952*/ 07160003
*/*      DELETE=(MODNAME)                                    @ZM00952*/ 07200003
*/*      LIST=(PARAMETER LIST)                               @ZM00952*/ 07240003
*/*      C=(N)                                               @ZM00952*/ 07280003
*/*           (MODNAME) IS THE EIGHT CHARACTER MODULE NAME   @ZM00952*/ 07320003
*/*                     FROM ANYMOD MACRO OR TWO CHAR SUFFIX @ZM00952*/ 07360003
*/*                     FROM IFDMOD MACRO. IT CAN BE A SYMBOL@ZM00952*/ 07400003
*/*                     THAT IS THE ADDR OF THE ITEM, THE    @ZM00952*/ 07440003
*/*                     ACTUAL NAME IN QUOTES, OR A REGISTER @ZM00952*/ 07480003
*/*                     IN PARENTHESIS CONTAINING THE ADDR.  @ZM00952*/ 07520003
*/*           (PARAMETER LIST) IS A PARAMETER LIST TO BE     @ZM00952*/ 07560003
*/*                     PASSED TO THE CALLED PROGRAM. IT CAN @ZM00952*/ 07600003
*/*                     BE A SYMBOL OR A REGISTER (IN        @ZM00952*/ 07640003
*/*                     PARENTHESIS) CONTAINING THE ADDR.    @ZM00952*/ 07680003
*/*           (N)       IS THE NUMBER OF CHARACTERS SENT     @ZM00952*/ 07720003
*/*                     BY THE IFDMOD AND ANYMOD MACROS.     @ZM00952*/ 07760003
*/*                     IT IS TWO FOR IFDMOD AND EIGHT       @ZM00952*/ 07800003
*/*                     FOR ANYMOD.                          @ZM00952*/ 07840003
*/***********************************************************@ZM00952*/ 07880003
         AIF   (T'&LOAD NE 'O').LD1                                     08000000
         AIF   (T'&CALL NE 'O').CL1                                     09000000
         AIF   (T'&DELETE NE 'O').DE1                                   10000000
         MNOTE 8,'KEYWORD LOAD, CALL, OR DELETE MISSING'                11000000
         MEXIT                                                          12000000
.LD1     ANOP                                                           13000000
&A       SETA  &A+32                                                    14000000
&MOD     SETC  '&LOAD'                                                  15000000
&K       SETA  K'&LOAD                                                  16000000
         AIF   (&K LT &B).OK                                            17000000
&L       SETA  &K-&C                                                    18000000
&MOD1    SETC  '&LOAD'(&B,&L)                                           19000000
         AGO   .OK                                                      20000000
.CL1     ANOP                                                           21000000
&MOD     SETC  '&CALL'                                                  22000000
&K       SETA  K'&CALL                                                  23000000
         AIF   (&K LT &B).OK                                            24000000
&L       SETA  &K-&C                                                    25000000
&MOD1    SETC  '&CALL'(&B,&L)                                           26000000
         AGO   .OK                                                      27000000
.DE1     ANOP                                                           28000000
&A       SETA  &A+16                                                    29000000
&MOD     SETC  '&DELETE'                                                30000000
&K       SETA  K'&DELETE                                                31000000
         AIF   (&K LT &B).OK                                            32000000
&L       SETA  &K-&C                                                    33000000
&MOD1    SETC  '&DELETE'(&B,&L)                                         34000000
.OK      AIF   (&L EQ 0).OKA                                            35000000
         AIF   ('&MOD'(1,1) EQ '(' OR '&MOD'(1,1) EQ '''').OKA1         36000000
         AIF   (&K LT 9).OKA                                            37000000
.ER1A    ANOP                                                           38000000
&MOD     SETC  '&MOD'(1,&C)                                             39000000
.ER1B    MNOTE 8,'TOO MANY CHARACTERS IN &MOD&MOD1'                     40000000
         MEXIT                                                          41000000
.OKA1    AIF   (&L LT 3).OKA                                            42000000
&MOD     SETC  '&MOD'(2,&C-1)                                           43000000
&MOD1    SETC  '&MOD1'(1,&L-1)                                          44000000
         AGO   .ER1B                                                    45000000
.OKA     ANOP                                                           46000000
&NAME    DS    0H                                                       47000000
         AIF   (T'&LIST EQ 'O').SKP1                                    48000000
         AIF   ('&LIST'(1,1) NE '(').SKP1                               49000000
         ST    &LIST.,L&SYSNDX .        STORE LIST ADDRESS              50000000
.SKP1    AIF   ('&MOD'(1,1) NE '(').SKP2                                51000000
         MVC   P&SYSNDX.+2(&C),0&MOD .   NAME INTO PARAMETER LIST       52000000
         AGO   .SKP3                                                    53000000
.SKP2    AIF   ('&MOD'(1,1) EQ '''').SKP3                               54000000
         MVC   P&SYSNDX.+2(&C),&MOD .    NAME INTO PARAMETER LIST       55000000
.SKP3    ANOP                                                           56000000
         LA    R14,R&SYSNDX .                                           57000000
         L     R15,TAB28 .              TRANSIENT MANAGER ENTRY POINT   58000000
         CNOP  2,4 .                                                    59000000
         BALR  R1,R15 .                                                 60000000
P&SYSNDX DC    AL1(&A) .         INDICATORS FOR TRANSIENT MANAGER       61000000
         DC    AL1(2) .                 MACRO LEVEL                     62000000
         AIF   ('&MOD'(1,1) EQ '''').SKP4                               63000000
         DC    CL&C.' ' .           MODULE                              64000000
         AGO   .SKP5                                                    65000000
.SKP4    AIF   (&L EQ 0).SKP4A                                          66000000
&MOD     SETC  '&MOD'(1,&C)                                             67000000
         DC    CL&C&MOD&MOD1 .             MODULE NAME                  68000000
         AGO   .SKP5                                                    69000000
.SKP4A   ANOP                                                           70000000
         DC    CL&C&MOD .    MODULE NAME                                71000000
.SKP5    ANOP                                                           72000000
         AIF   (T'&LIST EQ 'O').SKP3A                                   73000000
L&SYSNDX DC    A(&LIST) .                                               74000000
.SKP3A   ANOP                                                           75000000
R&SYSNDX DS    0H .               RETURN ADDRESS                        76000000
         MEND                                                           77000000
