         MACRO                                                          00050002
&NAME    BRPRTMSG &ADDR,&LN                                             00100002
.*A001200,008600-008920,009100                                   Y02006 00102002
.*C009500                                                        Y02006 00104002
.***  GLOBAL VARIABLE &BALMOD INDICATES IF BAL MODULE OR PLS MODULE **  00110002
         GBLB  &BALMOD                                           Y02006 00120002
         AIF   ('&LN'(1,1) EQ '(').LN1                                  00150002
&NAME    LA    R2,&LN              LOAD LENGTH TO R2                    00200002
         AGO   .LN2                                                     00250002
.LN1     AIF   ('&LN'(2,2) EQ 'R2').LN3                                 00300002
&NAME    LR    R2,&LN              LOAD LENGTH TO R2                    00350002
         AGO   .LN2                                                     00400002
.LN3     ANOP                                                           00450002
&NAME    DS    0H                                                       00500002
.LN2     AIF   ('&ADDR' EQ '').LOAD                                     00550002
         AIF   ('&ADDR'(1,1) EQ '(').ADDR2                              00600002
         LA    R1,&ADDR            LOAD ADDR TO R1                      00650002
         AGO   .LOAD                                                    00700002
.ADDR2   AIF   ('&ADDR'(2,2) EQ 'R1').LOAD                              00750002
         LR    R1,&ADDR(1)         LOAD ADDR TO R1                      00800002
.LOAD    ANOP                                                           00850002
         AIF   (&BALMOD).BALMSG    BRANCH IF BAL MODULE          Y02006 00860002
         L     R15,APRTMSG(,COMBASE) LOAD ADDR OF PRTMSG         Y02006 00870002
         AGO   .CALMSG                                           Y02006 00890002
.BALMSG  ANOP                                                    Y02006 00892002
         L     R15,APRTMSG         LOAD ADDR OF PRTMSG                  00900002
.CALMSG  ANOP                                                    Y02006 00910002
         BALR  R14,R15             LINK TO IT                    Y02006 00950002
         MEND                                                           01000002
