         MACRO                                                          00050002
&NAME    BRWRITE &PARM,&MODE                                     S21014 00100002
.*A001200,014100-014400,014600                                   Y02006 00102002
.*C015000                                                        Y02006 00104002
.***  GLOBAL VARIABLE &BALMOD INDICATES IF BAL MODULE OR PLS MODULE **  00110002
         GBLB  &BALMOD                                           Y02006 00120002
         LCLA  &IMCT                                             S21014 00150002
         AIF   ('&MODE' EQ '').AFOP                              S21014 00200002
         AIF   ('&MODE' EQ 'AFT').AFOP                           S21014 00250002
         AIF   ('&MODE' EQ 'IMM').IMOP                           S21014 00300002
.*                                                               S21014 00350002
         MNOTE 12,'INVALID BRWRITE MODE - MUST BE ''IMM'' OR ''AFT'''   00400002
         MEXIT                                                          00450002
.IMOP    ANOP                                                    S21014 00500002
         AIF   ('&PARM' NE 'SKIP').IMLINE                        S21014 00550002
&NAME    LA    PREG,2 .            SET CODE FOR SKIP IMMEDIATELY S21014 00600002
         AGO   .COMPL                                            S21014 00650002
.IMLINE  ANOP                                                    S21014 00700002
&IMCT    SETA  &PARM                                             S21014 00750002
&IMCT    SETA  &IMCT+2                                           S21014 00800002
&NAME    LA    PREG,&IMCT .        SET SPACE IMMED. CODE         S21014 00850002
         AGO   .COMPL                                            S21014 00900002
.AFOP    ANOP                                                    S21014 00950002
         AIF   ('&PARM' EQ 'SKIP').NEXT                                 01000002
&NAME    LA    PREG,&PARM .        LOAD PARM FOR NUMB OF SPACES         01050002
         AGO   .NEXT1                                                   01100002
.NEXT    ANOP                                                           01150002
&NAME    LA    PREG,1 .            INDICATE SKIP TO                     01200002
.COMPL   ANOP                                                    S21014 01250002
         LCR   PREG,PREG .         COMPLEMENT TO INDICATE        S21014 01300002
*                                  IMMEDIATE OPERATION OR SKIP   S21014 01350002
.NEXT1   ANOP                                                           01400002
         AIF   (&BALMOD).BALWRT    BRANCH IF BAL MODULE          Y02006 01410002
         L     R15,AWRITE(,COMBASE)  LOAD ADDR OF WRITE ROUTINE  Y02006 01420002
         AGO   .CALWRT                                           Y02006 01430002
.BALWRT  ANOP                                                    Y02006 01440002
         L     R15,AWRITE .        LOAD ADDR OF WRITE ROUTINE           01450002
.CALWRT  ANOP                                                    Y02006 01460002
         BALR  R14,R15 .           LINK TO IT                    Y02006 01500002
         MEND                                                           01550002
