         MACRO                                                          10000000
&NAME    CENXTR                                                         20000000
&NAME    IFDMOD LOAD='46'                                               30000000
         MEND                                                           40000000
