         MACRO                                                          07000000
&NAME    COMCOM &RELEASE=MVM22                                   Y02008 12000002
         LCLC  &V,&X,&Z,&S                                      X01906  17000001
&S       SETC  '&RELEASE'                                       X01906  22000001
&V       SETC  'DC'                                                     28000000
&X       SETC  'XL1'                                                    35000000
&Z       SETC  '''00'''                                                 42000000
         EJECT                                                          49000000
         IFDPF1 &V,&X,&Z,&S                                     X01906  56000001
REPBUF   EQU   INBUFR                                                   63000000
         ENTRY REPBUF                                                   70000000
         EJECT                                                          77000000
         MEND                                                           84000000
