         MACRO                                                          02000000
&NAME    DBV   &Z                                                       04000000
         LCLA  &I,&J,&K,&M                                              06000000
         LCLC  &B(7)                                                    08000000
.*                                                                      08050000
.*             CHANGES TO RELEASE 3                                     08100000
.*             CHANGES TO RELEASE 2                                     08150000
.*             CHANGES TO RELEASE 1                                     08200000
.*                                                                      08250000
.* DEFINES BYTE VALUES THROUGH THE USE OF                               08300000
.* EQUATES AND DS 0X                                                    08350000
.*                                                                      08400000
         AIF   ('&NAME' EQ '').I1                                       10000000
&NAME    DS    0X                                                       12000000
.I1      AIF   (&M EQ 0).M1                                             14000000
&B(&M+1) SETC  ''                                                       16000000
&M       SETA  &M-1                                                     18000000
         AGO   .I1                                                      20000000
.M1      ANOP                                                           22000000
&B(&M+1) SETC  '0'                                                      24000000
&K       SETA  0                                                        26000000
&I       SETA  &I+1                                                     28000000
         AIF   (K'&SYSLIST(&I) EQ 0).D1                                 30000000
&J       SETA  K'&SYSLIST(&I)+1                                         32000000
.L1      ANOP                                                           34000000
&J       SETA  &J-1                                                     36000000
         AIF   ('&SYSLIST(&I)'(&J,1) NE ')').S1                         38000000
&K       SETA  &K+1                                                     40000000
.S1      AIF   ('&SYSLIST(&I)'(&J,1) NE '(').S2                         42000000
&K       SETA  &K-1                                                     44000000
.S2      AIF   (&K EQ 0).S3                                             46000000
         AIF   (&K GT 0 AND &J GT 1).L1                                 48000000
.ERR     MNOTE 8,'INVALID PARAMETER SYNTAX IN OPERAND &I.'              50000000
         AGO   .D1                                                      52000000
.S4      ANOP                                                           54000000
&B(&M+1) SETC  '&SYSLIST(&I)'(&J+1+&M*8,8)                              56000000
&M       SETA  &M+1                                                     58000000
.S3      AIF   (K'&SYSLIST(&I)-&M*8-&J GT 9).S4                         60000000
         AIF   (&J EQ K'&SYSLIST(&I)).S5                                62000000
&B(&M+1) SETC  '&SYSLIST(&I)'(&J+1+&M*8,K'&SYSLIST(&I)-&M*8-&J-1)       64000000
.S5      AIF   (&J EQ 1 OR &J GT 8).ERR                                 66000000
&B(7)    SETC  '&SYSLIST(&I)'(1,&J-1)                                   68000000
&B(7)    EQU   &B(1)&B(2)&B(3)&B(4)&B(5)&B(6)                           70000000
V&B(7)   DS    0X                                                       72000000
.D1      AIF   (&I LT N'&SYSLIST).I1                                    74000000
         DS    1X                                                       76000000
.MEND    MEND                                                           78000000
