         MACRO                                                          02000000
&NAME    DCDSWORK  &DUMMY                                               04000000
.*                                                                      04050000
.*             CHANGES TO RELEASE 3                                     04100000
.*             CHANGES TO RELEASE 2                                     04150000
.*             CHANGES TO RELEASE 1                                     04200000
.*                                                                      04250000
.* GENERATES A WORK AREA FOR DC/DS EVALUATION ROUTINE                   04300000
.* (IFNX4D AND IFNX4N). THE WORK AREA IS GENERATED IN                   04400000
.* IFNX4D AND IFNX4N BY A CALL FROM MACRO ICOMMON                       04450000
&NAME    DS    0F                       NAME                            06000000
DCSWORK  DS    0XL11                             DC SWITCH CODES        08000000
DCSWTCH  DSW   BITLN,ESMOD,TYPEL,TYPEV,TYPEZ     DC/DS SWITCH CODE      10000000
LFDEL    DS    C                                 LEFT FIELD DELIMITER   12000000
RTDEL    DS    C                        RIGHT FIELD DELIMITER           14000000
SCADDR   DS    X                        SCAN ROUTINE ADDRESS            16000000
DCALIGN  DS    X                        IMPLIED LENGTH AND ALIGNMENT    18000000
MINLN    DS    X                        MINIMUM LENGTH LODIFIER RANGE   20000000
MAXLN    DS    H                        MAXIMUM LENGTH MODIFIER RANGE   22000000
BITINCR  DS    H                        NUMBER OF BITS PER DIGIT        24000000
HILIMIT  DS    X                        HIGHEST VALUE OF VALID DIGIT    26000000
PERIOD   EQU   D0+BITINCR               DECIMAL POINT ENCOUNTERED       28000000
EXPONENT EQU   D1+BITINCR               EXPONENT ENCOUNTERED            30000000
SUBFIELD EQU   D1+BITINCR               SUBFIELD ENCOUNTERED            32000000
TYPECALL DSW   ,DXDALIGN,DEFNAME,DLOCTREF,DCCALL,DSCALL,LTCALL,LTORGSCN 34000000
LEVELPTR DS    A                        LEVEL POINTER                   36000000
DUPFAC   DS    F                        DUPLICATION FACTOR              38000000
CONLNG   DS    F                        CONSTANT LENGTH                 40000000
DCDSWORK DS    0XL38                    INITIALIZE                      42000000
REFCOUNT DS    H                        SYMBOL COUNT                    44000000
SYMCOUNT DS    H                        SYMBOL COUNT                    46000000
VEETABLE DS    16X                      V-TYPE CONSTANTS TABLE          48000000
ADSYM    DS    A                        ADDRESS OF SYMBOL TABLE ENTRY   50000000
BITADD   DS    H                        RESIDUAL BIT COUNT              52000000
OPCNT    DS    H                        OPERAND COUNT                   54000000
LATTRSAV DS    H                        SAVE                            56000000
DCWORK   DS    0XL8                     INITIALIZE                      58000000
LATTR    DS    H                        LENGTH ATTRIBUTE                60000000
ADUPFAC  DS    A                        ADDRESS OF DUPLICATION FACTOR   62000000
CONCT    DS    H                        CONSTANT COUNT                  64000000
         MEND                                                           66000000
