         MACRO                                                          03000000
&NAME    DSW                                                            06000000
         GBLA  &INDEX                                                   09000000
         GBLC  &DEFNAME(255),&SWNAME(255)                               12000000
         LCLA  &I,&J                                                    15000000
         LCLC  &X,&Y                                                    18000000
.*                                                                      18050000
.*             CHANGES TO RELEASE 3                                     18100000
.*             CHANGES TO RELEASE 2                                     18150000
.*             CHANGES TO RELEASE 1                                     18200000
.*                                                                      18250000
.* DEFINES SWITCH BYTE AND NAMES THE BITS IN THE BYTE                   18300000
.*                                                                      18350000
         AIF   (N'&SYSLIST GT 8).ERR1                                   21000000
&X       SETC  'JSW&SYSNDX'                                             24000000
         AIF   (K'&NAME EQ 0).NEXT                                      27000000
&X       SETC  '&NAME'                                                  30000000
.NEXT    ANOP                                                           33000000
&X       DS    X                                                        36000000
         AIF   (N'&SYSLIST EQ 0).EXIT                                   39000000
.LOOP    ANOP                                                           42000000
&J       SETA  &I+1                                                     45000000
         AIF   (K'&SYSLIST(&J) EQ 0).BYPASS                             48000000
         AIF   (K'&SYSLIST(&J) GT 8).ERR1                               51000000
&INDEX   SETA  &INDEX+1                                                 54000000
         AIF   (&INDEX GT 255).ERR2                                     57000000
&Y       SETC  '&SYSLIST(&J)'                                           60000000
&DEFNAME(&INDEX) SETC '&X'                                              63000000
&SWNAME(&INDEX)  SETC '&Y'                                              66000000
&Y       EQU   BIT&I                                                    69000000
.BYPASS  ANOP                                                           72000000
&I       SETA  &I+1                                                     75000000
         AIF   (N'&SYSLIST GT &I).LOOP                                  78000000
.EXIT    MEXIT                                                          81000000
.ERR1    MNOTE 8,'PARAMETER ERROR.'                                     84000000
         MEXIT                                                          87000000
.ERR2    MNOTE 8,'TOO MANY SWITCHES DEFINED FOR ASSEMBLY.'              90000000
         MEND                                                           93000000
