         MACRO                                                          01000000
&NAME    EVALWORK &DUMMY,&MAXTERM=20,&MAXPARN=6                         02000000
         LCLA  &I                                                       03000000
.*                                                                      03050000
.*             CHANGES TO RELEASE 3                                     03100000
.*             CHANGES TO RELEASE 2                                     03150000
.*             CHANGES TO RELEASE 1                                     03200000
.*                                                                      03250000
.*  GENERATES THE EVALUATION ROUTINE WORK AREA                          03300000
.* IN PHASE COMMON. THIS WORK AREA IS USED BY                           03350000
.* IFNX4V AND IFNX5V RESPECTIVLY                                        03450000
.*                                                                      03500000
SELFDEFN DBV   SELFDEF(0)                                               04000000
EVALMODE DSW   SUBLIST,PRDEFREQ,DCOP                                    05000000
CLCLNG   DS    H                                                        06000000
IMPLNG   DS    H                                                        07000000
EVALREGS DS    0A                                                       08000000
ATPTR    DS    A(TERMS)                                                 09000000
ALPTR    DS    A(RLIST)                                                 10000000
AOPTR    DS    A(OPRNS-1)                                               11000000
ERRPTR   DS    F                        ERROR COLUMN POINTER            12000000
OPNEND   DS    F                                                        13000000
&I       SETA  (&MAXTERM+1)/2*2                                         14000000
         DS    0D                       CAUSE DOUBLE WORD ALIGNMENT     15000000
RLIST    DS    &I.H                                                     16000000
&I       SETA  &MAXPARN*16+25                                           17000000
EVALWORK DS    0XL&I                                                    18000000
FIRST    DBV   ,                                                        19000000
STATUS   DBV   STATUS1(1),STATUS2(2)                                    20000000
         DS    3H                                                       21000000
RELOCTR  DBV   NORELOC(0)                                               22000000
         DS    X                                                        23000000
         DS    3H                                                       24000000
EVALSW   DSW   ,ENDOFEXP,LOCTREF,LNGQUOTE                               25000000
EVALSW1  DSW   ,EVALERR,SDVSIZE,RELOCER,OVERFLO,NOTDEFN,,FATALER        26000000
         ORG   EVALSW1                                                  27000000
         DBV   COMPLEX(0)                                               28000000
         DS    3H                                                       29000000
PARENCNT DS    0H                                                       30000000
         DS    X                                                        31000000
         DBV   NOPAREN(0),MAXPARN(&MAXPARN)                             32000000
         DS    3H                                                       33000000
SHIFTN   DBV   SHIFTB(1),SHIFTD(3),SHIFTH(4),SHIFTC(8)                  34000000
         DBV   MAXCHAR(4),MAXHEX(8),MAXDEC(10),MAXBIT(32)               35000000
         ORG   FIRST                    ORIGIN                          36000000
&I       SETA  &MAXPARN*4+6                                             37000000
TERMS    DS    &I.F                                                     38000000
         DBV   ENDPARN(0)                                               39000000
&I       SETA  &MAXPARN*4+4                                             40000000
OPRNS    DS    &I.X                                                     41000000
         DS    X                        NOT USED                        41300000
XSSAV    DS    H                        TEST ESDID                      41600000
DSECT2   DSECT ,                        TERM STACK POINTER              42000000
         ORG   DSECT2                   ORIGIN                          43000000
TERM1CNT DS    F                                                        44000000
TERM1    DS    F                                                        45000000
TERM2CNT DS    F                                                        46000000
TERM2    DS    F                                                        47000000
DSECT3   DSECT ,                        RELOCATION LIST POINTER         48000000
         ORG   DSECT3                   ORIGIN                          49000000
ESDID    DS    H                                                        50000000
NEXTESD  DS    H                                                        51000000
JTEXT    DSECT ,                        OPERATOR STACK POINTER          52000000
         ORG   JTEXT                    ORIGIN                          53000000
OLDOP    DBV   DEL0(JLPARN),ADD0(JPLUS),SUB0(JMINUS),MUL0(JASTER),     ,54000000
               DIV0(JSLASH),UNY0(JSLASH+1)                              55000000
NEWOP    DBV   DEL1(JLPARN),ADD1(JPLUS),SUB1(JMINUS),MUL1(JASTER),     ,56000000
               DIV1(JSLASH),UNY1(JSLASH+1)                              57000000
DSECT5   DSECT ,                        INPUT POINTER                   58000000
         ORG   DSECT5                   ORIGIN                          59000000
CHAR1    DS    X                        CURRENT CHARACTER               59050000
CHAR2    DS    X                        NEXT CHARACTER                  59100000
CHAR3    DS    X                        NEXT CHARACTER                  59150000
DSECT14  DSECT ,                        INPUT POINTER                   80000000
         ORG   DSECT14                  ORIGIN                          81000000
         DBV   BQUOTE(JB),CQUOTE(JC),XQUOTE(JX),LQUOTE(JL)              82000000
&SYSECT  DSECT ,                        RESUME DSECT                    83000000
         MEND                                                           84000000
