         MACRO                                                          00050002
&NAME    FMTPTRN &CODE,&LN1,&LN2,&OFFS1,&OFFS2,&LPTR,&DPTR,&LAST        00100002
         LCLA  &A,&B                                                    00150002
&NAME    DS    0F                  TO ALIGN TO WORD BOUNDRY             00200002
         AIF   (N'&CODE EQ 1).CODE1                                     00250002
         AIF   (N'&CODE EQ 2).CODE2                                     00300002
         AIF   (N'&CODE EQ 3).CODE3                                     00350002
         AIF   (N'&CODE EQ 4).CODE4                                     00400002
         AIF   (N'&CODE EQ 5).CODE5                                     00450002
         DC    AL1(&CODE(1)+&CODE(2)+&CODE(3)+&CODE(4)+&CODE(5)+&CODE(6X00500002
               ))                  CODE BYTE                            00550002
         AGO   .LN                                                      00600002
.CODE1   DC    AL1(&CODE(1))       CODE BYTE                            00650002
         AGO   .LN                                                      00700002
.CODE2   DC    AL1(&CODE(1)+&CODE(2)) CODE BYTE                         00750002
         AGO   .LN                                                      00800002
.CODE3   DC    AL1(&CODE(1)+&CODE(2)+&CODE(3)) CODE BYTE                00850002
         AGO   .LN                                                      00900002
.CODE4   DC    AL1(&CODE(1)+&CODE(2)+&CODE(3)+&CODE(4)) CODE BYTE       00950002
         AGO   .LN                                                      01000002
.CODE5   DC    AL1(&CODE(1)+&CODE(2)+&CODE(3)+&CODE(4)+&CODE(5))       X01050002
                                   CODE BYTE                            01100002
.LN      AIF   (T'&LN1 EQ 'O').NOLN1                                    01150002
         AIF   (&LN1 EQ 0).NOLN1                                        01200002
         AIF   (T'&LN2 EQ 'O').NOLN2                                    01250002
         AIF   (&LN2 EQ 0).NOLN2                                        01300002
         DC    AL1(&LN1*16+&LN2-17) LENGTHS FOR LABEL AND DATA          01350002
         AGO   .OFF                                                     01400002
.NOLN1   AIF   (T'&LN2 EQ 'O').NOLN                                     01450002
         AIF   (&LN2 EQ 0).NOLN                                         01500002
         DC    AL1(&LN2-1)         LENGTH OF DATA                       01550002
         AGO   .OFF                                                     01600002
.NOLN2   DC    AL1(&LN1*16-16)     LENGTH OF LABEL                      01650002
         AGO   .OFF                                                     01700002
.NOLN    DC    AL1(0)              NO LABEL OR DATA LENGTHS             01750002
.OFF     AIF   (T'&OFFS1 EQ 'O').NOOFF1                                 01800002
         AIF   (T'&OFFS2 EQ 'O').NOOFF2                                 01850002
         DC    AL1(&OFFS1,&OFFS2)  LABEL AND DATA OFFSETS INTO LINE     01900002
         AGO   .PTRS                                                    01950002
.NOOFF1  AIF   (T'&OFFS2 EQ 'O').NOOFFS                                 02000002
         DC    AL1(0,&OFFS2)       OFFSET FOR DATA INTO LINE            02050002
         AGO   .PTRS                                                    02100002
.NOOFF2  DC    AL1(&OFFS1,0)       OFFSET OF LABEL INTO LINE            02150002
         AGO   .PTRS                                                    02200002
.NOOFFS  DC    AL1(0,0)            NO LABEL OR DATA OFFSETS             02250002
.PTRS    AIF   (T'&LPTR EQ 'O').DPTR NO LABEL PTR IF OMMITED            02300002
         AIF   (N'&LPTR GT 1).LPTR2 FIRST VAL IS LABEL FOR PTR          02350002
         DC    A(&LPTR(1))         ADDR OF LABEL                        02400002
         AGO   .DPTR                                                    02450002
.LPTR2   ANOP                                                           02500002
&LPTR(1) DC    A(&LPTR(2))         ADDR OF LABEL                        02550002
.DPTR    AIF   (T'&DPTR EQ 'O').END NO DATA PTR IF OMITTED              02600002
         AIF   (N'&DPTR GT 1).DPTR2 FIRST VAL IS LABEL FOR PTR          02650002
         DC    A(&DPTR(1))         ADDR OF DATA                         02700002
         AGO   .END                                                     02750002
.DPTR2   ANOP                                                           02800002
&DPTR(1) DC    A(&DPTR(2))         ADDR OF DATA                         02850002
.END     AIF   (T'&LAST EQ 'O').ENDA                                    02900002
         AIF   ('&LAST' NE 'LAST').ENDA                                 02950002
         DC    AL1(0)              TO END PATTERN                       03000002
.ENDA    MEND                                                           03050002
