             MACRO                                                      00050002
&NAME        FSPACE &R,&LV=,&A=                                         00100002
.*****************************************************************      00150002
.*                                                                      00200002
.* MACRO NAME - FSPACE                                                  00250002
.*                                                                      00300002
.* DESCRIPTIVE NAME -FREE SPACE MACRO (THIS IS FREEMAIN LIKE)           00350002
.*                                                                      00400002
.* COPYRIGHT - N/A                                                      00450002
.*                                                                      00500002
.* STATUS - OS/VS2 REL. 2.0                                             00550002
.*                                                                      00600002
.* FUNCTION -                                                           00650002
.*                                                                      00700002
.*   THE FUNCTION OF THIS MACRO IS TO SETUP THE INPUT REGS TO THE       00750002
.*   FSPACE SERVICE ROUTINE LOCATED IN MODULE IEFAB4F6.                 00800002
.*                                                                      00850002
.*   OPERATION -                                                        00900002
.*                                                                      00950002
.*      THIS MACRO REQUIRES - FSPACE R,LV=(0)                           01000002
.*      1) IF INVALID PARAMETERS PRINT MNOTE.                           01050002
.*      2) INSERT CODE                                                  01100002
.*      3) EXIT                                                         01150002
.*                                                                      01200002
.* NOTES -                                                              01250002
.*   DEPENDENCIES -                                                     01300002
.*      THIS MACRO IS CALLED BY USING THE PL/S STACK OPTION.            01350002
.*      THEREFORE CHANGES TO PL/S MAY IMPACT THIS MACRO                 01400002
.*      THE ONLY REGISTERS THE MACRO MAY ALTER ARE 0,1,14,15.           01450002
.*                                                                      01500002
.*   RESTRICTIONS                                                       01550002
.*      NONE.                                                           01600002
.*   REGISTER CONVENTIONS -                                             01650002
.*      MAY ONLY USE 14 THRU 1                                          01700002
.*                                                                      01750002
.*   PATCH LABEL - N/A                                                  01800002
.*                                                                      01850002
.* MODULE TYPE - MACRO                                                  01900002
.*                                                                      01950002
.*   PROCESSER - ASSEM                                                  02000002
.*   MODULE SIZE - N/A                                                  02050002
.*   ATTRIBUTES - EXECUTABLE MACRO                                      02100002
.*                                                                      02150002
.* ENTRY POINT - N/A                                                    02200002
.*                                                                      02250002
.* EXIT -                                                               02300002
.*   R0- UNPREDICTABLE                                                  02350002
.*   R1- UNPREDICTABLE                                                  02400002
.*   R2-R13 NOT CHANGED                                                 02450002
.*   R14 - UNPREDICTABLE                                                02500002
.*   R15 - UNPREDICTABLE                                                02550002
.*                                                                      02600002
.* EXTERNAL REFERENCES - NONE                                           02650002
.*                                                                      02700002
.* TABLES - NONE                                                        02750002
.* MACROS - NONE                                                        02800002
.*                                                                      02850002
.* CHANGE ACTIVITY - Y02670                                             02900002
.*                                                                      02950002
.* MESSAGES - SEE MNOTE IN MACRO CODE.                                  03000002
.*                                                                      06000002
.* ABEND CODES - NONE                                                   09000002
.*                                                                      12000002
.*****************************************************************      15000002
             AIF ('&R' EQ 'R' AND '&LV' EQ '(0)' AND '&A' EQ '(1)').OK  18000002
             MNOTE 4,'FSPACE PARAMETERS INVALID'                        21000002
.OK          ANOP                                                       24000002
&NAME        L     15,GS&SYSNDX.C      SET FSPACE EP IN REG 15          27000002
             CNOP  2,4                 *                                30000002
GS&SYSNDX.L  BALR  14,15               CALL FSPACE                      33000002
             B     GS&SYSNDX.E         +0 RETURN IS NORMAL RETURN       36000002
             B     GS&SYSNDX.D         +4 RETURN REQUIRES FREEMAIN      39000002
GS&SYSNDX.C  DC    V(FSPACE)           FSPACE ENTRY POINT               42000002
GS&SYSNDX.D  SVC   10                  FREEMAIN                         45000002
GS&SYSNDX.E  EQU   *                   *                                48000002
             MEND                                                       51000002
