         MACRO                                                          00003041
&NAME    GETSEQ &SEQADDR                                                00006041
* MACCOMP-SC1CM                                                         00009041
* MACSTAT-@G17EP5W                                                      00012041
* MACMEAN-GET SEQUENCE NUMBER FOR ERROR ID                              00015041
         CNOP  0,4                     SET UP ALIGNMENT                 00018041
         L     2,CVTPTR                GET CVT ADDR                     00021041
         L     2,CVTRTMCT(2)           GET ADDR OF RTCT                 00024041
         L     0,RTCTRFLG(2)           GET ORIGINAL VALUE               00027041
IHBC&SYSNDX LR    1,0                  MOVE TO REGISTER FOR PROCESSING  00030041
         LR    2,0                     SAVE ORIGINAL VALUE              00033041
         SLDL  0,16                    MOVE HI-2 BYTES TO REG0          00036041
         SLL   0,16                    MOVE TO HI-ORDER BYTES IN REG0   00039041
         SRL   1,16                    PUT SEQ# IN LOW ORDER BYTES      00042041
         LA    1,1(1)                  INCREMENT COUNTER                00050041
         SLL   1,16                    SHIFT OUT ADD OVERFLOW FOR HALF  00052041
         SRL   1,16                    RETURN COUNTER TO ORIGINAL POS.  00054041
         OR    1,0                     PUT NEW VALUE IN REG1            00056041
         LR    0,2                     PUT ORIGINAL VALUE IN REG2       00058041
         L     2,CVTPTR                GET CVT ADDR                     00060041
         L     2,CVTRTMCT(2)           GET ADDR OF RTCT                 00062041
         CS    0,1,RTCTRFLG(2)         TRY TO SET NEW SEQ NUMBER        00064041
         BNE   IHBC&SYSNDX             IF NOT SUCCESSFUL--RETRY         00066041
         SLL   1,16                    MOVE OUT NON-SEQ# BYTES          00068041
         SRL   1,16                    RETURN SEQ TO ORIGINAL POS.      00070041
         AIF   ('&SEQADDR' EQ '').NOSTORE                               00072041
         LR    0,1                     SAVE ANSWER IN REG 0             00074041
         IHBINNRA &SEQADDR             PUT ANSWER ADDR IN REG 1         00076041
         STH   0,0(1)                SAVE SEQUENCE NUMBER VALUE         00078041
.NOSTORE MEXIT                                                          00080041
         MEND                                                           00082041
