         MACRO                                                          00400000
&NAME    GOIF3 &SW,&ALL=,&NONE=,&MIX=,&NOTALL=,&ANY=,&NOTMIX=,         X00800000
               &ELSE=,&ON=,&OFF=                                        01200000
         GBLA  &INDEX                                                   01600000
         GBLC  &BYTE,&CRNT                                              02000000
         GBLC  &DEFNAME(255),&SWNAME(255)                               02400000
         LCLA  &COUNT1,&COUNT2                                          02800000
         LCLB  &FIRST,&COND(3),&USED(6),&TM,&MASK(3)                    03200000
.*                                                                      03250000
.*             CHANGES TO RELEASE 3                                     03300000
.*             CHANGES TO RELEASE 2                                     03350000
.*             CHANGES TO RELEASE 1                                     03400000
.*                                                                      03450000
.* INNER MACRO TO GOIF. GENERATES THE INSTRUCTIONS                      03500000
.* IF THE FIELD TO TEST IS NOT A SWITCH                                 03550000
.*                                                                      03560000
 LCLC    &PLUS(7)                                                       03600000
.NXT1    ANOP                                                           04000000
         AIF   (N'&SW EQ 1).SNGL .      ONLY ONE SWITCH                 04400000
.NXT1A   ANOP                                                           04800000
&COND(1) SETB  0                                                        05200000
&COND(2) SETB  0                                                        05600000
&COND(3) SETB  0                                                        06000000
         AIF   (&USED(1) AND &USED(2) AND &USED(3) AND &USED(4) AND &USX06400000
               ED(5) AND &USED(6)).GEN1                                 06800000
&FIRST   SETB  0                                                        07200000
.ALL     AIF   (&USED(1)).NONE                                          07600000
         AIF   (K'&ALL EQ 0).ALL3                                       08000000
&COND(1) SETB  1 .                      BRANCH CONDITION ONES           08400000
&FIRST   SETB  1                                                        08800000
&CRNT    SETC  '&ALL(1)'                                                09200000
&USED(1) SETB  1                                                        09600000
.NONE    AIF   (&USED(2)).MIX                                           10000000
         AIF   (K'&NONE EQ 0).NONE3                                     10400000
         AIF   (&FIRST).NONE2                                           10800000
&COND(2) SETB  1 .                      BRANCH CONDITION ZEROS          11200000
&FIRST   SETB  1                                                        11600000
&CRNT    SETC  '&NONE(1)'                                               12000000
&USED(2) SETB  1                                                        12400000
         AGO   .MIX                                                     12800000
.NONE2   AIF   ('&CRNT' NE '&NONE').MIX                                 13200000
&USED(2) SETB  1                                                        13600000
&COND(2) SETB  1                                                        14000000
.MIX     AIF   (&USED(3)).NOTALL                                        14400000
         AIF   (K'&MIX EQ 0).MIX3                                       14800000
         AIF   (&FIRST).MIX2                                            15200000
&FIRST   SETB  1                                                        15600000
&CRNT    SETC  '&MIX(1)'                                                16000000
&USED(3) SETB  1                                                        16400000
&COND(3) SETB  1 .                      BRANCH CONDITION MIXED          16800000
         AGO   .NOTALL                                                  17200000
.MIX2    AIF   ('&CRNT' NE '&MIX').NOTALL                               17600000
&COND(3) SETB  1                                                        18000000
&USED(3) SETB  1                                                        18400000
.NOTALL  AIF   (&USED(4)).ANY                                           18800000
         AIF   (K'&NOTALL EQ 0).NOTALL3                                 19200000
         AIF   (&FIRST).NOTALL2                                         19600000
&FIRST   SETB  1                                                        20000000
&CRNT    SETC  '&NOTALL(1)'                                             20400000
&USED(4) SETB  1                                                        20800000
&COND(2) SETB  1 .                      BRANCH CONDITION ZEROS          21200000
&COND(3) SETB  1 .                      BRANCH CONDITION MIXED          21600000
         AGO   .ANY                                                     22000000
.NOTALL2 AIF   ('&CRNT' NE '&NOTALL').ANY                               22400000
&USED(4) SETB  1                                                        22800000
&COND(2) SETB  1                                                        23200000
&COND(3) SETB  1                                                        23600000
.ANY     AIF   (&USED(5)).NOTMIX                                        24000000
         AIF   (K'&ANY EQ 0).ANY3                                       24400000
         AIF (&FIRST).ANY2                                              24800000
&FIRST   SETB  1                                                        25200000
&CRNT    SETC  '&ANY(1)'                                                25600000
&USED(5) SETB  1 .                      THIS OPTION USED                26000000
&COND(1) SETB  1 .                      BRANCH CONDITION ONES           26400000
&COND(3) SETB  1 .                      BRANCH CONDITION MIXED          26800000
         AGO   .NOTMIX                                                  27200000
.ANY2    AIF   ('&CRNT' NE '&ANY').NOTMIX                               27600000
&USED(5) SETB  1                                                        28000000
&COND(1) SETB  1                                                        28400000
&COND(3) SETB  1                                                        28800000
.NOTMIX  AIF   (&USED(6)).GEN                                           29200000
         AIF   (K'&NOTMIX EQ 0).NOTMIX3                                 29600000
         AIF   (&FIRST).NOTMIX2                                         30000000
&FIRST   SETB  1                                                        30400000
&CRNT    SETC  '&NOTMIX(1)'                                             30800000
&USED(6) SETB  1 .                      OPTION USED                     31200000
&COND(1) SETB  1 .                      BRANCH CONDITION ONES           31600000
&COND(2) SETB  1 .                      BRANCH CONDITION ZEROS          32000000
         AGO   .GEN                                                     32400000
.NOTMIX2 AIF   ('&CRNT' NE '&NOTMIX').GEN                               32800000
&USED(6) SETB  1                                                        33200000
&COND(1) SETB  1                                                        33600000
&COND(2) SETB  1                                                        34000000
.NOTMIX3 ANOP                                                           34400000
&USED(6) SETB  1                                                        34800000
         AGO   .GEN                                                     35200000
.ANY3    ANOP                                                           35600000
&USED(5) SETB  1                                                        36000000
         AGO   .NOTMIX                                                  36400000
.NOTALL3 ANOP                                                           36800000
&USED(4) SETB  1                                                        37200000
         AGO   .ANY                                                     37600000
.MIX3    ANOP                                                           38000000
&USED(3) SETB  1                                                        38400000
         AGO   .NOTALL                                                  38800000
.NONE3   ANOP                                                           39200000
&USED(2) SETB  1                                                        39600000
         AGO   .MIX                                                     40000000
.ALL3    ANOP                                                           40400000
&USED(1) SETB  1                                                        40800000
         AGO   .NONE                                                    41200000
.GEN     ANOP                                                           41600000
         AIF   ('&CRNT' EQ '&ELSE').NXT1                                42000000
.GEN1    AIF   (&TM).GEN2 .             IF ALREADY GEN'D TM             42400000
         AIF   ('&SW' EQ '').GEN2       NO SWITCHES, DON'T DO TM        42800000
         AIF   (K'&SW(2) EQ 0).ZIP1                                     43200000
&PLUS(1) SETC  '+'                                                      43600000
.ZIP1    AIF   (K'&SW(3) EQ 0).ZIP2                                     44000000
&PLUS(2) SETC  '+'                                                      44400000
.ZIP2    AIF   (K'&SW(4) EQ 0).ZIP3                                     44800000
&PLUS(3) SETC  '+'                                                      45200000
.ZIP3    AIF   (K'&SW(5) EQ 0).ZIP4                                     45600000
&PLUS(4) SETC  '+'                                                      46000000
.ZIP4    AIF   (K'&SW(6) EQ 0).ZIP5                                     46400000
&PLUS(5) SETC  '+'                                                      46800000
.ZIP5    AIF   (K'&SW(7) EQ 0).ZIP6                                     47200000
&PLUS(6) SETC  '+'                                                      47600000
.ZIP6    AIF   (K'&SW(8) EQ 0).ZIP7                                     48000000
&PLUS(7) SETC  '+'                                                      48400000
.ZIP7    ANOP                                                           48800000
&NAME    TM    &BYTE,&SW(1)&PLUS(1)&SW(2)&PLUS(2)&SW(3)&PLUS(3)&SW(4)&PX49200000
               LUS(4)&SW(5)&PLUS(5)&SW(6)&PLUS(6)&SW(7)&PLUS(7)&SW(8)   49600000
&TM      SETB  1 .                      FLAG AS GENERATED               50000000
.GEN2    ANOP                                                           50400000
         AIF   (NOT &COND(1) AND NOT &COND(2) AND NOT &COND(3)).NOP    X50800000
                                        NO CONDITIONS, MAY BE A NOP     51200000
         AIF   (&COND(2) AND &COND(3)).BNO                              51600000
         AIF   (&COND(1) AND &COND(3)).BNZ                              52000000
         AIF   (&COND(1) AND &COND(2)).BNM                              52400000
         AIF   (&COND(1)).BO                                            52800000
         AIF   (&COND(2)).BZ                                            53200000
         AIF   (&COND(3)).BM                                            53600000
&MASK(1) SETB  1                                                        54000000
&MASK(2) SETB  1                                                        54400000
&MASK(3) SETB  1                                                        54800000
         AIF   ('&CRNT'(1,1) EQ '(').BA1                                55200000
         B     &CRNT                    BRANCH PER MACRO CALL           55600000
         AGO   .NXT1 .                  GO BACK FOR MORE                56000000
.BA1     BR    &CRNT                    BRANCH PER MACRO CALL           56400000
         AGO   .NXT1                                                    56800000
.BO      AIF   (&MASK(1)).ERR4                                          57200000
&MASK(1) SETB  1                                                        57600000
         AIF   ('&CRNT'(1,1) EQ '(').BO1                                58000000
         BO    &CRNT                    BRANCH PER MACRO CALL           58400000
 AGO     .NXT1                                                          58800000
.BO1     BCR   1,&CRNT                  BRANCH PER MACRO CALL           59200000
         AGO   .NXT1                                                    59600000
.BZ      AIF   (&MASK(2)).ERR4                                          60000000
&MASK(2) SETB  1                                                        60400000
         AIF   ('&CRNT'(1,1) EQ '(').BZ1                                60800000
         BZ    &CRNT                    BRANCH PER MACRO CALL           61200000
         AGO   .NXT1                                                    61600000
.BZ1     BCR   8,&CRNT                  BRANCH PER MACRO CALL           62000000
         AGO   .NXT1                                                    62400000
.BM      AIF   (&MASK(3)).ERR4                                          62800000
&MASK(3) SETB  1                                                        63200000
         AIF   ('&CRNT'(1,1) EQ '(').BM1                                63600000
         BM    &CRNT                    BRANCH PER MACRO CALL           64000000
         AGO   .NXT1                                                    64400000
.BM1     BCR   4,&CRNT                  BRANCH PER MACRO CALL           64800000
         AGO   .NXT1                                                    65200000
.BNO     AIF   (&MASK(2) OR &MASK(3)).ERR4                              65600000
&MASK(2) SETB  1                                                        66000000
&MASK(3) SETB  1                                                        66400000
         AIF   ('&CRNT'(1,1) EQ '(').BNO1                               66800000
         BNO   &CRNT                    BRANCH PER MACRO CALL           67200000
         AGO   .NXT1                                                    67600000
.BNO1    BCR   14,&CRNT                 BRANCH PER MACRO CALL           68000000
         AGO   .NXT1                                                    68400000
.BNZ     AIF   (&MASK(1) OR &MASK(3)).ERR4                              68800000
&MASK(1) SETB  1                                                        69200000
&MASK(3) SETB  1                                                        69600000
         AIF   ('&CRNT'(1,1) EQ '(').BNZ1                               70000000
         BNZ   &CRNT                    BRANCH PER MACRO CALL           70400000
         AGO   .NXT1                                                    70800000
.BNZ1    BCR   7,&CRNT                  BRANCH PER MACRO CALL           71200000
         AGO   .NXT1                                                    71600000
.BNM     AIF   (&MASK(1) OR &MASK(2)).ERR4                              72000000
&MASK(1) SETB  1                                                        72400000
&MASK(2) SETB  1                                                        72800000
         AIF   ('&CRNT'(1,1) EQ '(').BNM1                               73200000
         BNM   &CRNT                    BRANCH PER MACRO CALL           73600000
         AGO   .NXT1                                                    74000000
.BNM1    BCR   11,&CRNT                 BRANCH PER MACRO CALL           74400000
         AGO   .NXT1                                                    74800000
.ERR4    ANOP                                                           75200000
         MNOTE 8,'REDUNDANT LOGIC--CONDITION USED MORE THAN ONCE'       75600000
         AGO   .DONE                                                    76000000
.ERR10   ANOP                                                           76400000
         MNOTE 8,'OPTIONS ARE ONLY LEGAL FOR MULTIPLE SWITCH'           76800000
         AGO   .SNGL3                                                   77200000
.ERR3    ANOP                                                           77600000
.OUT     ANOP                                                           78000000
.NOP     ANOP                                                           78400000
.DONE    AIF   (K'&ELSE EQ 0).DONE2                                     78800000
         AIF   (&MASK(1) AND &MASK(2) AND &MASK(3)).ERR4                79200000
         AIF   ('&ELSE'(1,1) EQ '(').DONE3                              79600000
         B     &ELSE                    BRANCH PER MACRO CALL           80000000
.DONE2   MEXIT                                                          80400000
.DONE3   BR    &ELSE                    BRANCH PER MACRO CALL           80800000
         MEXIT                                                          81200000
.SNGL    ANOP                                                           81600000
         AIF   ('&MIX' NE '' OR '&NOTMIX' NE '').ERR10                  82000000
.SNGL3   ANOP                                                           82400000
&NAME    TM    &BYTE,&SW                                                82800000
         AIF   ((K'&ON NE 0) AND (K'&OFF NE 0)).B2                      83200000
         AIF   ((K'&ON EQ 0) AND (K'&OFF EQ 0)).NOP                     83600000
         AIF   (K'&ON EQ 0).SNGL2                                       84000000
         AIF   ('&ON'(1,1) EQ '(').BO91                                 84400000
         BO    &ON                      BRANCH PER MACRO CALL           84800000
         AGO   .DONE                                                    85200000
.BO91    BCR   1,&ON(1)                 BRANCH PER MACRO CALL           85600000
         AGO   .DONE                                                    86000000
.SNGL2   ANOP                                                           86400000
         AIF   ('&OFF'(1,1) EQ '(').BZ91                                86800000
         BZ    &OFF                     BRANCH PER MACRO CALL           87200000
         AGO   .DONE                                                    87600000
.BZ91    BCR   8,&OFF(1)                BRANCH PER MACRO CALL           88000000
         AGO   .DONE                                                    88400000
.B2      AIF   ('&ON' EQ '&OFF').B3                                     88800000
         AIF   ('&ON'(1,1) EQ '(').B20                                  89200000
         BO    &ON                      BRANCH PER MACRO CALL           89600000
         AGO   .B21                                                     90000000
.B20     BCR   1,&ON(1)                 BRANCH PER MACRO CALL           90400000
.B21     AIF   ('&OFF'(1,1) EQ '(').B23                                 90800000
         BZ    &OFF                     BRANCH PER MACRO CALL           91200000
         AGO   .DONE                                                    91600000
.B23     BCR   8,&OFF(1)                BRANCH PER MACRO CALL           92000000
         AGO   .DONE                                                    92400000
.B3      ANOP                                                           92800000
         AIF   ('&ON'(1,1) EQ '(').B30                                  93200000
         B     &ON                      BRANCH PER MACRO CALL           93600000
         AGO   .DONE                                                    94000000
.B30     BR    &ON(1)                   BRANCH PER MACRO CALL           94400000
         AGO   .DONE                                                    94800000
         MEND                                                           95200000
