         MACRO                                                          00050002
&NAME    HEXCNVT &OUT,&IN,&LN                                           00100002
         GBLC  &HEXSECT,&HEXTAB,&HEXWRD                                 00150002
         LCLA  &A,&B,&C,&D,&E,&F,&G                                     00200002
         LCLB  &REGSW,&RLNSW,&DFALTSW                                   00250002
         LCLB  &HEXSW                                                   00300002
         LCLC  &GNAME                                                   00350002
&GNAME   SETC  'HEX'.'&SYSNDX'                                          00400002
&DFALTSW SETB  (T'&LN EQ 'O')                                           00450002
         AIF   (&DFALTSW EQ 1).NEXT2                                    00500002
&RLNSW   SETB  ('&LN'(1,1) EQ '(')                                      00550002
.NEXT2   AIF   ('&OUT' EQ '' OR '&IN' EQ '').ERROR2                     00600002
&REGSW   SETB  ('&OUT'(1,1) EQ '(')                                     00650002
         AIF   (&DFALTSW EQ 0 AND T'&LN NE 'N').ERROR4                  00700002
         AIF   (&DFALTSW EQ 1).NEXT3                                    00750002
         AIF   (N'&LN NE 1).ERROR5                                      00800002
.NEXT3   AIF   (&RLNSW EQ 1 AND T'&LN(1) NE 'N').ERROR4 LN MUST BE     C00850002
               SELF DEFINING                                            00900002
         AIF   (&DFALTSW EQ 1).NEXT4                                    00950002
         AIF   (&RLNSW EQ 1 AND (&LN(1) LT 2 OR &LN(1) GT 12)).ERROR3  C01000002
               IF LN IS A REG IT MUST BE 2-12                           01050002
         AIF   (&RLNSW EQ 0 AND T'&LN(1) NE 'N').ERROR4 LN MUST BE     X01100002
               SELF DEFINING                                            01150002
         AIF   (&RLNSW EQ 1).NEXT4                                      01200002
         AIF   (&LN LT 1 OR &LN GT 112).ERROR6 LN MUST BE FROM 1-112    01250002
.NEXT4   AIF   (&REGSW EQ 0).NEXT9                                      01300002
         AIF   ('&IN'(1,1) NE '(').ERROR1 &IN MUST ALSO BE A REG        01350002
         AIF   (T'&OUT NE 'N').ERROR4                                   01400002
         AIF   (N'&OUT GT 1).ERROR3                                     01450002
         AIF   (&OUT(1) LE 1 OR &OUT(1) GT 12).ERROR3                   01500002
         AIF   (T'&IN NE 'N').ERROR4                                    01550002
         AIF   (N'&IN GT 1).ERROR3                                      01600002
         AIF   (&IN(1) LE 1 OR &IN(1) GT 12).ERROR3                     01650002
         AGO   .NEXT5                                                   01700002
.NEXT9   AIF   ('&IN'(1,1) EQ '(').ERROR1                               01750002
         AIF   (T'&OUT EQ 'N' OR T'&IN EQ 'N').ERROR4                   01800002
.NEXT5   ANOP                                                           01850002
&HEXSW   SETB  ('&HEXSECT' EQ '&SYSECT')                                01900002
         AIF   (&HEXSW EQ 1).NEXT6                                      01950002
&HEXSECT SETC  '&SYSECT'                                                02000002
&HEXWRD  SETC  '&GNAME'                                                 02050002
&HEXTAB  SETC  '&GNAME.A'                                               02100002
.NEXT6   ANOP                                                           02150002
         AIF   (&DFALTSW EQ 1).DFALT                                    02200002
         AIF   (&RLNSW EQ 1).REGLN                                      02250002
         AIF   (&LN GT 7).MULTI                                         02300002
&A       SETA  &LN*2+1             LENGTH FOR R1 OF UNPK                02350002
&B       SETA  &LN+1               LENGTH FOR R2 OF UNPK                02400002
.CONTA   AIF   (&REGSW EQ 1).ISAREG                                     02450002
&NAME    UNPK  &OUT.(&A),&IN.(&B)  UNPACK HEX DIGITS                    02500002
&A       SETA &A-1                                                      02550002
         MVI   &OUT+&A,X'40'       CLEAR SIGN BYTE                      02600002
.CONTB   L     1,&GNAME.B          SET ORIGIN OF TABLE                  02650002
         S     1,0(1)              BACK 240 BYTES                       02700002
         AIF   (&RLNSW EQ 1).CONTG                                      02750002
         AIF   (&REGSW EQ 1).CONTD                                      02800002
         TR    &OUT.(&A),0(1)      TRANSLATE FA-FF                      02850002
.CONTC   B     &GNAME.H            BR AROUND CONSTANTS                  02900002
         AIF   (&HEXSW EQ 1).ENDD  DON'T GENERATE TABLE IF SW ON        02950002
         AGO   .ENDC                                                    03000002
.ISAREG  ANOP                                                           03050002
&NAME    UNPK  0(&A,&OUT(1)),0(&B,&IN(1)) UNPACK HEX DIGITS             03100002
&A       SETA  &A-1                                                     03150002
         MVI   &A.(&OUT(1)),X'40'  CLEAR SIGN BYTE                      03200002
         AGO   .CONTB              SET REG 1 FOR TR                     03250002
.CONTD   TR    0(&A,&OUT(1)),0(1)  TRANSLATE FA-FF                      03300002
         AGO   .CONTC                                                   03350002
.DFALT   ANOP                                                           03400002
&A       SETA  9                   DFAULT TO 4 BYTES                    03450002
&B       SETA  5                                                        03500002
         AGO   .CONTA                                                   03550002
.MULTI   ANOP                                                           03600002
&C       SETA  (&LN/4)             TO UNPACK 4 AT A TIME                03650002
&D       SETA  &LN-&C*4            REMAINDER                            03700002
&A       SETA  9                                                        03750002
&B       SETA  5                                                        03800002
         AIF   (&REGSW EQ 0).MULTIB                                     03850002
&E       SETA  &OUT(1)                                                  03900002
&F       SETA  &IN(1)                                                   03950002
&G       SETA  1                                                        04000002
&NAME    LA    &G,&C               SET COUNT                            04050002
.MULTIA  ANOP                                                           04100002
&GNAME.E UNPK  0(&A,&E),0(&B,&F)   UNPACK HEX DIGITS                    04150002
&A       SETA  &A-1                                                     04200002
         MVI   &A.(&E),X'EF'       CLEAR SIGN BYTE                      04250002
         LA    &E,9(&E)            INCREMENT ADDRESSES                  04300002
         LA    &F,4(&F)                                                 04350002
         BCT   &G,&GNAME.E         LOOP                                 04400002
         AIF   (&D EQ 0).CONTH     NO REMAINDER                         04450002
&A       SETA  &D*2+1                                                   04500002
&B       SETA  &D+1                                                     04550002
         UNPK  0(&A,&E),0(&B,&F)   UNPACK HEX DIGITS                    04600002
&A       SETA  &A-1                                                     04650002
         MVI   &A.(&E),X'40'       CLEAR SIGN BYTE                      04700002
.CONTH   ANOP                                                           04750002
&C       SETA  &C+&LN*2                                                 04800002
&G       SETA  &C+&D*2             LENGTH OF FIELD TO BE TRANSLATED     04850002
         LA    1,&C                RE-ESTABLISH BEGINING                04900002
         SR    &E,1                OF FIELD                             04950002
         L     1,&GNAME.B          SET ORIGIN OF TABLE                  05000002
         S     1,0(1)              BACK 240 BYTES                       05050002
         TR    0(&G,&E),0(1)       TRANSLATE FA-FF                      05100002
         AGO   .CONTC                                                   05150002
.MULTIB  ANOP                                                           05200002
&NAME    LA    2,&OUT                                                   05250002
         LA    1,&IN                                                    05300002
         LA    3,&C                SET COUNT                            05350002
&E       SETA  2                                                        05400002
&F       SETA  1                                                        05450002
&G       SETA  3                                                        05500002
         AGO   .MULTIA                                                  05550002
.REGLN   ANOP                                                           05600002
         AIF   (&REGSW EQ 0).CONTI                                      05650002
&E       SETA  &OUT(1)                                                  05700002
&F       SETA  &IN(1)                                                   05750002
         AGO   .CONTJ                                                   05800002
.CONTI   ANOP                                                           05850002
&E       SETA  2                                                        05900002
&F       SETA  3                                                        05950002
&NAME    LA    2,&OUT                                                   06000002
         LA    3,&IN                                                    06050002
         LR    1,&LN(1)                                                 06100002
         AGO   .CONTK                                                   06150002
.CONTJ   ANOP                                                           06200002
&NAME    LTR   1,&LN(1)            LOAD LN TO REG 1 AND TEST            06250002
         BZ    &GNAME.H            DO NOTHING IF ZERO                   06300002
.CONTK   LA    0,3                 SET UP MASK                          06350002
         NR    0,1                 AND SAVE 2 LOW ORDER BITS            06400002
         SRL   1,2                 DIVIDE BY 4                          06450002
         LTR   1,1                 LENGTH LESS THAN 4                   06500002
         BZ    &GNAME.F            IF YES--BRANCH                       06550002
&GNAME.E UNPK  0(9,&E),0(5,&F)     UNPACK HEX DIGITS                    06600002
         MVI   8(&E),X'EF'         CLEAR SIGN BYTE                      06650002
         LA    &E,9(&E)            INCREMENT REGS                       06700002
         LA    &F,4(&F)                                                 06750002
         BCT   1,&GNAME.E          LOOP                                 06800002
&GNAME.F LTR   0,0                                                      06850002
         BZ    &GNAME.G            BRANCH IF SAVED BITS ARE 0           06900002
         LR    1,0                 ADJUST REG 1                         06950002
         AR    1,0                 FOR EXECUTE INSTRUCTION              07000002
         SLL   1,4                                                      07050002
         OR    1,0                                                      07100002
         EX    1,&GNAME.C          EXECUTE UNPK                         07150002
         SRL   1,4                                                      07200002
         AR    &E,1                                                     07250002
         MVI   0(&E),X'40'         CLEAR SIGN BYTE                      07300002
&GNAME.G LR    1,&LN(1)                                                 07350002
         SRL   1,2                 DIVIDE BY 4                          07400002
         AR    &LN(1),&LN(1)       SET UP LENGTH FOR                    07450002
         AR    &LN(1),1            TRANSLATE INSTRUCTION                07500002
         SR    &E,&LN(1)           RE-ESTABLISH BEGINING OF FIELD       07550002
         AGO   .CONTB              SET REG 1 FOR TR                     07600002
.CONTG   BCTR  &LN(1),0            DECR LN 1 FOR EXECUTE INST           07650002
         EX    &LN(1),&GNAME.D     EXECUTE TR                           07700002
         B     &GNAME.H            BRANCH AROUND CONSTANTS              07750002
         AGO   .ENDA                                                    07800002
.ERROR1  MNOTE 12,'INCONSISTANT PARAMETERS'                             07850002
         MEXIT                                                          07900002
.ERROR2  MNOTE 12,'PARAMETER MISSING'                                   07950002
         MEXIT                                                          08000002
.ERROR3  MNOTE 12,'REG PARMS CANNOT BE 0, 1, OR 13 THROUGH 15'          08050002
         MEXIT                                                          08100002
.ERROR4  MNOTE 12,'INVALID TYPE ATTRIBUTE SPECIFIED IN PARAMETERS'      08150002
         MEXIT                                                          08200002
.ERROR5  MNOTE 12,'&LN--MULTIPLE PARAMETERS INVALID'                    08250002
         MEXIT                                                          08300002
.ERROR6  MNOTE 12,'&LN INVALID--MUST BE FROM 1-112'                     08350002
         MEXIT                                                          08400002
.ENDA    ANOP                                                           08450002
&GNAME.C UNPK  0(0,&E),0(0,&F)     UNPACK HEX DIGITS                    08500002
&GNAME.D TR    0(0,&E),0(1)        TRANSLATE FA-FF                      08550002
         AIF   (&HEXSW EQ 0).ENDC                                       08600002
.ENDD    ANOP                                                           08650002
&GNAME.B DC    A(&HEXWRD)                                               08700002
         AGO   .ENDB                                                    08750002
.ENDC    ANOP                                                           08800002
&GNAME.B DC    A(&HEXWRD)                                               08850002
&GNAME   DC    F'234'                                                   08900002
         DC    C'  '                                                    08950002
&GNAME.A DC    C'0123456789ABCDEF'                                      09000002
.ENDB    ANOP                                                           09050002
&GNAME.H DS    0H                                                       09100002
         MEND                                                           09150002
