FCH2   TITLE   'IEWFETCH...PROGRAM LOADING ROUTINE...FETCH WORK AREA.'  00030037
         MACRO                                                          00060002
&NAME    IHAFETWK  &DSECT=YES                                           00090002
         AIF   ('&DSECT' EQ 'NO').NODSECT                               00120002
WKAREA   DSECT                                                          00150002
.NODSECT ANOP                                                           00180002
WKFETCH  EQU   *                  FETCH WORKAREA                        00210002
*              THE FOLLOWING SEGMENT DESCRIBES THE STRUCTURE OF THE     00240002
*              WORK AREA USED BY FETCH.                                 00270002
*                                                                       00300002
FTIOB    DS    8F                 IOB USED FOR EXCP REQUESTS            00330002
FTIOBSK  DS    2F                 IOB SEEK ADDRESS                      00360002
*********************                                                   00390002
XAREA    DS    0F                                                       00420002
XKEY     DC    CL4'FTWA'          FETCH IDENTIFICATION KEY              00450002
XFLAGS   DS    0XL4               FETCH CONTROL FLAGS            Y02081 00480002
XFLAG1   DS    X                  TRANSLATE/FIX CONTROL FLAGS           00510002
* ---------- XFLAG1 BIT DEFINITIONS                                     00540002
NEWIOFLG EQU   X'80'              FRESH I/O REQUEST ISSUED              00570002
ACTXTFLG EQU   X'40'              READ-TEXT CCW IS ACTIVE IN CURRENT CP 00600002
SYNRDFLG EQU   X'20'              SYNC READ ISSUED (NO PCI)             00630002
USDEBFLG EQU   X'10'              USERS DEB COPIED INTO GOTTON CORE     00660002
TXTREAD  EQU   X'08'          SIO APPENDAGE TXT READ INDICATOR   YM2867 00690002
VAMDEV   EQU   X'04'                ** UCB INDICATES A VIRTUAL   Y02081 00720002
*                           IF ON  **  DEVICE IS BEING FETCHED   Y02081 00750002
*                                   ** FROM (VAM DATA SET)       Y02081 00780002
RPSDEV   EQU   X'02'                ** DEVICE BEING FETCHED FROM Y02081 00810002
*                           IF ON  **  SUPPORTS ROTATIONAL       Y02081 00840002
*                                   ** POSITION SENSING (RPS)    Y02081 00870002
RELERR   EQU   X'01'                ** AN INVALID ADCON ADDRESS  Y02081 00900002
*                           IF ON  **  WAS ENCOUNTERED IN THE    Y02081 00930002
*                                   ** DIE RELOCATE ROUTINE      Y02081 00960002
* --------------                                                        00990002
XFLAG2   DS    X                       CONTROL FLAGS - BYTE 2    Y02081 01020002
* ---------- XFLAG2 BIT DEFINITIONS                              Y02081 01050002
BADREC   EQU   X'80'                ** AN INVALID RECORD         Y02081 01080002
*                           IF ON  **  TYPE WAS ENCOUNTERED      Y02081 01110002
*                                   ** IN THE DIE ROUTINE        Y02081 01140002
TXTFIX   EQU   X'40'                ** THE DIE ROUTINE FOUND THE Y02081 01170002
*                           IF ON  **  NEXT TEXT RECORD TO BE    Y02081 01200002
*                                   ** OUTSIDE THE PGFIX'D AREA  Y02081 01230002
ONETXT   EQU   X'20'                ** THE MODULE BEING READ     Y02081 01260002
*                           IF ON  **  CONTAINS ONE TEXT RECORD  Y02081 01290002
*                                   ** WITH NO RLD RECORDS       Y02081 01320002
PRGFREE  EQU   X'10'                ** PURGE SUBROUTINE          Y02081 01340002
*                           IF ON  **  HAS ALREADY               Y02081 01340402
*                                   ** FREED RESOURCES.          Y02081 01342002
ACRRELOC EQU   X'08'                ** WHEN WE BRANCH TO PCI APG Y02081 01344002
*                           IF ON  **  AFTER COMMAND RETRY       Y02081 01346002
*                                   ** RELOCATION IS REQD        Y02081 01348002
CPLOOP   EQU   X'04'                ** CHANNEL PROGRAM LOOP HAS  Y02081 01348402
*                           IF ON  **  BEEN DETECTED BY POST     Y02081 01348802
*                                   ** STATUS NORMAL EXIT RTN    Y02018 01349202
CTLERR   EQU   X'02'                ** AN INVALID ADDRESS WAS    Y02081 01349602
*                           IF ON  **  FOUND IN A CONTROL RECORD Y02081 01349702
*                                   ** BY THE DIE ROUTINE        Y02018 01349802
IOSBFREE EQU   X'01'                ** IOSB/SRB HAS BEEN         YM8279 01349902
*                           IF ON  **  FREEMAINED IN  TERMNATION YM8279 01359902
* --------------                                                 Y02081 01370002
         DS    2X                 - RESERVED -                   Y02081 01380002
*********************                                                   01410002
FTSKBUF1 DS    2F                                                Y02081 01440002
FTSKBUF2 DS    2F                                                Y02081 01470002
FTSKBUF3 DS    2F                                                Y02081 01500002
FTSKBUF4 DS    2F                                                Y02081 01530002
FTCPSRCH DS    4D                 SEARCH AND TIC CCWS            Y02081 01560002
FTRBUF1  DS    32D                RLD BUFFER 1                   Y02081 01590002
FTCP1    DS    6D                 CHAN PROG 1                    Y02081 01620002
FTRBUF2  DS    32D                RLD BUFFER 2                   Y02081 01650002
FTCP2    DS    6D                 CHAN PROG 2                    Y02081 01680002
FTRBUF3  DS    32D                RLD BUFFER 3                   Y02081 01710002
FTCP3    DS    6D                 CHAN PROG 3                    Y02081 01740002
FTECB    DS    1F                                                       01770002
FTFXECB  DS    1F                 ECB FOR PGFIX REQUESTS         Y02081 01800002
FTTBLPTR DS    1F                 POINTER TO CURRENT FTTBL ENTRY Y02081 01830002
FTTBL    DS    9F                 BUFFER TABLE                          01860002
FTTBL2   EQU   FTTBL+12           2ND ENTRY IN BUFFER TABLE      Y02081 01870002
FTTBL3   EQU   FTTBL+24           3RD ENTRY IN BUFFER TABLE      Y02081 01880002
FTREGSV  DS    16F                REGISTER SAVE AREA                    01890002
FTRPTR   DS    1F                 ADDR OF R POINTER                     01920002
FTFLAGS  DS    0FL8               FETCH CONTROL FLAGS            Y02081 01950002
FTFLG1   DS    XL1                FLAG BYTE 1                    Y02081 01980002
FTFLG2   DS    XL1                FLAG BYTE 2                    Y02081 02010002
FTFLG3   DS    XL1                FLAG BYTE 3                    Y02081 02040002
FTFLG4   DS    XL1                FLAG BYTE 4                    Y02081 02070002
FTRESTRT DS    1F                 ADDR OF PREVIOUS RBUF USED     Y02081 02100002
*                                 IN THE DIE ROUTINE TO LOCATE   Y02081 02130002
*                                 LAST TIC-TO ADDR TO SET UP     Y02081 02160002
*                                 THE TIC IN THE SRCHID CP FOR   Y02081 02190002
*                                 RESTART                        Y02081 02220002
FTLASTBF DS    1F                 PTR TO PRIOR BUFR TABLE ENTRY         02250002
*                                                                       02280002
*              EXTENSION TO FETCH WORK AREA                             02310002
*                                                                       02340002
XSOMAD   DS    F                  LOWER CORE LIMIT FOR LOAD MODULE      02370002
XEOMAD   DS    F                  UPPER CORE LIMIT FOR LOAD MODULE      02400002
XLOFIX   DS    F                  LOWER BOUND FOR TEXT AREA FIX REQ     02430002
XHIFIX   DS    F                  UPPER BOUND FOR TEXT AREA FIX REQ     02460002
XNEXTLOC DS    F                  LOCATION OF NEXT TEXT BYTE READ       02490002
XTRANTAB DS    0XL8               CCW TRANSLATION DATA --               02520002
XCCWAD   DS    F                  POINTER TO CCW REQ TRANSLATION        02550002
XTXTAD   DS    F                  VIRTUAL ADDRESS IN THE CCW            02580002
XIDALP1  DS    AL4(XALAREA1)      POINTER TO IDAL BUILD AREA            02610002
XIDALP2  DS    AL4(XALAREA2)      POINTER TO ALTERNATE IDAL AREA        02640002
XALAREA1 DS    10F                IDAL AREA                             02670002
XALAREA2 DS    10F                IDAL AREA                             02700002
XGMLIST  DS    4F                 GETMAIN LIST AREA                     02730002
XORGDCB  DS    1F                 ORIGINAL LOAD DCB ADDRESS             02760002
XIOSBAD  DS    1F                 ADDR OF IOSB/SRB TO BE FREED          02790002
XDEBLEN  DS    1F                 SIZE OF MS OBTAINED FOR DEB(INC SP)   02820002
XRETSAV  DS    1F                      REGISTER 14 SAVE AREA     Y02081 02850002
XREGSV3  DS    1F                      REGISTER 3 SAVE AREA      YM1070 02880002
XREGSV6  DS    1F                      REGISTER 6 SAVE AREA      YM1070 02910002
XSECTAD  DS    1X                      BUFFER FOR READ/SET       Y02081 02940002
*                                      SECTOR COMMANDS WHEN      Y02081 02970002
*                                      WHEN FETCHING FROM AN RPS Y02081 03000002
*                                      DEVICE                    Y02081 03030002
         DS    3X                      RESERVED                  Y02081 03060002
XFTCBAD  DS    1F                      ADDRESS OF TCB FETCH IS   Y02081 03090002
*                                      RUNNING UNDER (SAVED FOR  Y02081 03120002
*                                      USE BY PURGE SUBROUTINE)  Y02081 03150002
*----PSEUDO DCB DEFINITION (USED WITH THE COPIED DEB).                  03180002
XDCBDEBO EQU   44             OFFSET OF DEB ADDR IN DCB          Y02081 03190002
         ORG   *-XDCBDEBO     ORG BACK OVER UNUSED FIELDS               03210002
XDCBCOPY EQU   *              START OF DCB                              03240002
         ORG   *+XDCBDEBO     RESTORE LOC COUNTER                       03270002
XDCBDEBA DS    1F             PSEUDO 'DCBDEBAD' FIELD                   03300002
*----END OF PSEUDO DCB DEFINITION.                                      03330002
XESTAEPT DS    1F                 ADDRESS SAVED IOSB/SDWA        Y02081 03340002
XESTLIST DS    1F                 ESTAE MACRO PARAMETER LIST     Y02081 03350002
XIOBSEK1 DS    XL5                IOBSEEK SAVE 1                 Y02081 03352002
XIOBSEK2 DS    XL5                IOBSEEK SAVE 2                 Y02081 03354002
         DS    2X                 RESERVED                       Y02081 03356002
*---PSUEDO SVRB FETCH W.A. POINTER USED TO SET UP CORRECTLY IN ESTAE    03356402
*    WHEN WE HAVE AN OVERLAY SUPERVISOR REQUEST. THE FOLLOWING WORD     03356802
*    POINTS TO THE FETCH WORK AREA AND IS SET UP AT ESTAE MACRO TIME    03357202
*    FOR AN OVERLAY SUPERVISOR REQUEST.  THE ORG BEHIND IT MAKES IT     03357602
*    LOOK LIKE ITS IN THE SVRB BY ORGING TO THE SAME OFFSET THE         03357702
*    WORK AREA POINTER IS STORED AT IN THE SVRB BY CONTENTS             03357802
*    SUPERVISOR.                                                        03357902
XESTAWKA DS    1F                 ESTAE PTR TO FETCH W.A.        Y02081 03358002
XESTAORG EQU   XESTAWKA-X'74'     OV SUPVR ESTAE PTR             Y02081 03358402
         SPACE                                                          03360002
*---------------MISC. EQUATES                                           03390002
IDALNTRY EQU   4                  SIZE OF EACH IDAL ENTRY               03420002
FIXLOENT EQU   0                  OFFSET TO LOW ENTRY PORTION           03450002
FIXHIENT EQU   4                  OPPSET TO HIGH ENTRY PORTION          03480002
FIXENTSZ EQU   8                  SIZE OF SIX-LIST ENTRY                03510002
ECBERRIN EQU   FTFXECB+3          ECB ERROR INDICATOR                   03520037
********************* PROGRAM MANAGER WORK AREA                         03540002
PGMMGR   EQU   X'0594'                                           *TEMP* 03570002
         ORG   WKFETCH+PGMMGR     OVERLAY PGM MGR WORK AREA AT   *TEMP* 03600002
*                                 CORRECT OFFSET                 *TEMP* 03630002
WKPGMMGR EQU   *                  PROGRAM MANAGER WORK AREA             03660002
WKCDADDR DS    A                  ADDRESS OF CDE                        03690002
WKIOADDR DS    A                  ADDRESS OF AREA GETMAINED.  FETCH     03720002
*                                 WILL DO I/O INTO THIS AREA            03750002
WKFLAG   DS    C                  TASKLIB SEARCH INDICATOR              03780002
FLAG     EQU   WKFLAG             USED FOR COMPATIBILITY                03810002
WKFLG1   DS    C                  FLAGS FIELDS                          03840002
WKAUTH   EQU   X'80'              FETCH PLACES THE LIBRARY              03870002
*                                 AUTHORIZATION FORM THE DEB HERE       03900002
WKSYSREQ EQU   X'40'              USER IS SYSTEM REQUEST                03930002
WKFLGS2  DS    2C                 RESERVED                              03960002
WKREGIS  DS    4F                 USED TO SAVE REGISTERS ACROSS BLDL    03990002
WKTCBSE  DS    A                  ADDRESS OF TCB CONTAINING LAST DCB    04020002
WKDCBSE  DS    A                  ADDRESS OF LAST DCB SEARCH ARGUMENT   04050002
********************* BLDL ENTRY AND MASK                               04080002
WKBLDE   EQU   *                  BLDL LIST                             04110002
WKPREFX  DS    4C                 MASK FOR BLDL REQUEST                 04140002
WKNAME   DS    8C                 THIS IS THE BASE                      04170002
WKTTRN   DS    4C                 AREA OF A                             04200002
WKZBYTE  DS    1C                 FORMAT 2 PDS                          04230002
WKCBYTE  DS    1C                 DIRECTORY ENTRY WITH                  04260002
WKTTESD  DS    8C                 2 BYTE MODIFIED                       04290002
WKATTR   DS    2C                 BY BLDL                               04320002
WKLNTH   DS    5C                       *                               04350002
WKENTPT  DS    3C                       *                               04380002
WKTXORG  DS    3C                       *                               04410002
WKAPFSSI DS    CL6                APF AND SSI INFO IF PRESENT           04440002
         ORG   WKAPFSSI           OVERLAY FOR ALISA, NO SCATTER         04470002
WKENTBK  DS    3C                 USED IF THE MODULE IS AN ALIAS        04500002
WKNAMBK  DS    8C                 AND HAS RENT OR REUS ATTRIBUTES       04530002
*                                 AND NO SCATTER                        04560002
         DS    CL6                APF AND SSI INFO IF PRESENT           04590002
         ORG   WKAPFSSI           * OVERLAY FOR WKENTBK                 04620002
WKSCATR  DS    8C                 USED FOR MODULES                      04650002
WKSCAPSI DS    CL6                APF AND SSI IF SCATTER ONLY           04680002
         ORG   WKSCAPSI           OVERLAY FOR SCATTER ALIAS             04710002
WKNAMSC  DS    8C                 HAVE RENT OR REUS ATTRIBUTES          04740002
WKENTSC  DS    3C                 WHICH ARE SCATTER LOADED              04770002
         DS    CL6                APF AND SSI INFO IF PRESENT           04800002
WKMAINEP DS    4C                 USED TO MAKE DSECT CONSISTANT         04830002
WKMAINAM DS    8C                 REGARDLESS OF ATTRIBUTES              04860002
WKEND    EQU   *                  END OF BLDL FETCH WORK AREA           04890002
WKSIZE   EQU   WKEND-WKFETCH      SIZE OF WORK AREA                     04920002
         MEND                                                           04950002
        TITLE 'IEWFETCH...PROGRAM LOADING ROUTINE...EQUATES'            04980002
IEWFETCH CSECT                                                          05010002
         ENTRY IEWFBOSV                                                 05040002
         ENTRY IEWMSEPT                                                 05070002
         ENTRY IEWFTPRG                                          Y02081 05100002
         ENTRY IEWFTXCK                                          Y02081 05130002
         SPACE                                                          05160002
*------- ID FLAGS FOR MODULE RECORDS.                                   05190002
CTLFLG   EQU   X'01'               CONTROL RECORD                       05220002
RLDFLG   EQU   X'02'               RLD RECORD                           05250002
ENDFLG   EQU   X'04'               END OF MODULE OR END OF SEGMENT      05280002
CTLCCW   EQU   8                   OFFSET OF RD-TXT CCW IN CONTROL REC  05310002
RLDATA   EQU   16                  OFFSET TO START OF RLD DATA   Y02081 05312002
*                                  ON AN RLD RECORD              Y02081 05314002
RLDLEN   EQU   6                   OFFSET TO RLD DATA BYTE COUNT Y02081 05316002
*                                  FIELD ON AN RLD RECORD        Y02081 05318002
RELREQ   EQU   X'E0'               MASK FOR BIT PATTERN IN AN    Y02081 05318402
*                                  RLD DATA ITEM WHICH MUST BE   Y02081 05318802
*                                  ALL ZEROES TO INDICATE THAT   Y02081 05319202
*                                  RELOCATION IS REQUIRED        Y02081 05319602
ADCLEN   EQU   X'0F'               IMMEDIATE BYTE USED FOR       Y02081 05319702
*                                  ISOLATING ADCON LENGTH        Y02081 05319802
RELNEG   EQU   X'02'               NEGATIVE RELOCATION INDICATOR Y02081 05319902
SAMERP   EQU   X'01'               BIT INDICATING NEXT RLD ITEM  Y02081 05323202
*                                  HAS SAME R&P POINTERS AS THE  Y02081 05325202
*                                  CURRENT ITEM                  Y02081 05325602
TSTBITS  EQU   X'F0'               MASK FOR UNUSED BITS IN 1ST   Y02081 05326702
*                                  BYTE OF CTL/RLD RECORDS (MUST Y02081 05330002
*                                  BE ZERO -- TESTED TO DETECT   Y02081 05332002
*                                  INVALID RECORD TYPES)         Y02081 05334002
*                                                                       05340037
*------- FETCH RETURN CODES.                                            05370002
RCNORMAL EQU   X'00'               SUCCESSFUL LOAD                      05400002
RCPRGCHK EQU   X'0B'               PROG CHECK OR LOOP IN FETCH   Y02081 05430002
RCNOCORE EQU   X'0C'               NOT ENOUGH STOR SPACE FOR MOD Y02081 05460002
RCBADREC EQU   X'0D'               INVALID RECORD TYPE ENCOUNTERED      05490002
RCBADADR EQU   X'0E'               INVALID ADDRESS ENCOUNTERED          05520002
RCIOERR  EQU   X'0F'               PERMANENT I/O ERROR                  05550002
*                                                                       05580037
*------- DCB OFFSETS                                                    05610002
DCBDEBAD EQU   44                  OFFSET TO DEB ADDRESS FIELD IN DCB   05640002
DCBFIX   EQU   4                   SIZE OF FIX REQMNT FOR DCB           05670002
AVTPTR   EQU   28                  AVT POINTERS IN DEB           Y02081 05680002
*                                                                       05700037
*------- VOID (VECTOR OF IOS DRIVERS) OFFSETS                    Y02081 05710002
VOIDFTPG EQU   84                  OFFSET TO VOID ENTRY FOR      Y02081 05720002
*                                  FETCH PURGE RTN ADDR          Y02081 05722002
VOIDFTXK EQU   92                  OFFSET TO VOID ENTRY FOR      Y02081 05724002
*                                  FETCH EXTENT CHECK RTN ADDR   Y02081 05726002
*                                                                       05728037
*------- STRING LENGTH OF FETCH CHANL PGMS(INTERNAL CCWS ONLY).         05730002
CPSRCHCT EQU   4                   SEARCH CCW COUNT                     05760002
CP1CT    EQU   5                   FIRST CP CCW COUNT                   05790002
CP2CT    EQU   5                   SECOND CP CCW COUNT                  05820002
CP3CT    EQU   5                   THIRD CP CCW COUNT                   05850002
*                                                                       05880037
*------- EQUATES FOR CCW HANDLING.                                      05910002
CCWOPR   EQU   0                   COMMAND FIELD                        05940002
CCWADR   EQU   1                   ADDRESS FIELD                 Y02081 05970002
CCWFLG   EQU   4                   CCW FLAGS                            06000002
CCWLEN   EQU   6                   COUNT FIELD                          06030002
CCWSZ    EQU   8                   SIZE OF CCW                          06060002
READOP   EQU   X'06'               READ-DATA COMMAND CODE               06090002
IDALFLAG EQU   X'04'               IDAL FLAG (BIT 37 OF CCW)            06120002
PCI      EQU   X'08'               PCI BIT FOR CCW FLAGS         YM1082 06150002
CMCH     EQU   X'40'               CMD CHAIN BIT FOR CCW FLAGS   YM1082 06160002
SILI     EQU   X'20'               SILI BIT FOR CCW FLAGS        YM1082 06170002
SRCHTIC  EQU   24                  OFFSET TO TIC CCW IN SRCH CP  Y02081 06180002
CPRDRLD  EQU   16                  OFFSET TO READ-RLD CCW IN REG CP     06210002
TICOFFST EQU   32                  OFFSET TO TIC FROM CCW START  YM2867 06240002
RDCT1AD  EQU   9                   OFFSET TO ADDRESS FIELD OF    Y02081 06250002
*                                  FIRST READ COUNT CCW          Y02081 06260002
RDCT1FL  EQU   12                  OFFSET TO FLAG FIELD OF       Y02081 06260402
*                                  FIRST READ COUNT CCW          Y02081 06260802
RDCT2AD  EQU   25                  OFFSET TO ADDRESS FIELD OF    Y02081 06262002
*                                  SECOND READ COUNT CCW         Y02081 06264002
RDCT2FL  EQU   28                  OFFSET TO FLAG FIELD OF       Y02081 06264102
*                                  SECOND READ COUNT CCW         Y02081 06264202
RDCNT2   EQU   24                  OFFSET TO 2ND READ COUNT CCW  Y02081 06264402
RDRLDAD  EQU   17                  OFFSET TO ADDRESS FIELD OF    Y02081 06266002
*                                  READ RLD/CTL RECORD CCW       Y02081 06268002
RDRLDFL  EQU   20                  OFFSET TO FLAG FIELD OF       Y02081 06268102
*                                  READ RLD/CTL RECORD CCW       Y02081 06268202
RDSECAD  EQU   41                  OFFSET TO ADDRESS FIELD OF    Y02081 06268402
*                                  READ SECTOR CCW               Y02081 06268802
SCHTICAD EQU   25                  OFFSET TO ADDRESS FIELD OF    Y02081 06269202
*                                  2ND TIC IN SEARCH CH PGM      Y02081 06269602
SCHIDAD  EQU   9                   OFFSET TO ADDRESS FIELD OF    Y02081 06269702
*                                  SEARCH ID CCW                 Y02081 06269802
TIC      EQU   X'08'               TIC-CCW COMMAND CODE          YM2867 06270002
RLDTICOF EQU   16                  OFFSET-CTL/RLD TO NOP/TIC     YM2867 06300002
NOP      EQU   X'03'               NOP-CCW COMMAND CODE          YM2867 06330002
*                                                                       06370037
*------- EQUATES FOR VAM CHANNEL PROGRAM CCW HANDLING.                  06372002
VAMRDRLD EQU   8                   OFFSET TO RD RLD IN VAM C.P.  Y02081 06380002
VAMNOPTC EQU   16                  OFFSET TO NOP/TIC IN VAM C.P. Y02081 06384002
VAMNOPAD EQU   17                  ADDRESS IN NOP/TIC CCW        Y02081 06388002
*                                  IN VAM C.P.                   Y02081 06388102
VAMFLAGS EQU   4                   OFFSET TO CCW FLAGS           Y02081 06388402
*                                  IN VAM C.P.                   Y02081 06391402
VAMTXTAD EQU   1                   OFFSET TO ADDRESS IN TXT      Y02081 06391502
*                                  RECORD                        Y02081 06391902
VAMCNT   EQU   6                   OFFSET TO TXT COUNT           Y02081 06392902
*                                  IN VAM C.P.                   Y02081 06393302
RDOPMULT EQU   X'86'               OP CODE FOR MULTI-TRACK READ  YM5962 06393702
CPADDRES EQU   16                  CHANNEL PGM ADDRESS IN IOB    Y02081 06394302
DCBADDRS EQU   20                  DCB ADDRESS IN IOB            Y02081 06395702
ECBADDRS EQU   4                   ECB ADDRESS IN ECB            Y02081 06397102
SRCHADDR EQU   1                   ADDR PORTION OF SEARCH CCW    Y02081 06398502
SRCHCCW  EQU   9                   ADDR PORTION OF 1ST TIC CCW   Y02081 06399902
TICTOADD EQU   17                  ADDR PORTION OF 2ND TIC CCW   Y02081 06409902
RLDBUFAD EQU   9                   ADDR PORTION OF READ RLD CCW  Y02081 06413202
*                                                                       06416737
*------- MISC DEFINITIONS                                               06420002
ALL      EQU   X'FF'               MASK FOR ALL BITS IN A BYTE          06450002
DEBCORE  EQU   254                 SUBPOOL NUMBER FOR DEB CORE          06480002
ADDR     EQU   B'0111'             MASK FOR ADDRESS PART OF REGISTER    06510002
HIBYT    EQU   B'1000'             REGISTER HIGH-ORDER BYTE MASK Y02081 06540037
KEYZERO  EQU   X'0F'               MASK FOR DEB KEY ZERO                06570002
TBLBUFAD EQU   8                   OFFSET OF BUFR PTR IN TBL ENTRY      06600002
TBLCPAD  EQU   4                   OFFSET OF CH PGM PTR IN TBL ENTRY    06610002
MBB      EQU   3                   EXTENT/BIN PART OF DISK ADDRESS      06630002
CCHHR    EQU   3                   CYL/HEAD/REC PART OF DISK ADDRESS    06660002
SKSIZ    EQU   5                   LNGTH OF A SEEK FIELD (CCHHR) Y02081 06662002
ZERO     EQU   0                   ZERO OFFSET                   Y02081 06670002
R14      EQU   56                  OFFSET TO REG 14              Y02081 06680002
R1OFFSET EQU   4                   OFFSET TO R1 IN SAVEAREA      Y02018 06682002
R2OFFSET EQU   8                   OFFSET TO R2 IN SAVEAREA      Y02018 06684002
CVTADDR  EQU   16                  PTR TO CVT ADDR.              Y02081 06686002
CURRTCB  EQU   4                   CURRENT TCB PTR.              Y02081 06688002
EXCP     EQU   0                   SVC NUMBER FOR EXCP                  06688402
XLISTADR EQU   16                  OFFSET TO EXTENT LIST ADDR IN CDE    06688802
REC0     EQU   0                   INIT VALUE OF R IN CCHHR      A34466 06689202
TWENTY   EQU   20                  OFFSET OF DCB ADDR IN IOB       7157 06689602
SIXTYEG  EQU   X'68'               IMMEDIATE OPERAND               7157 06689702
JOBLIBOF EQU   40                  JOBLIB DCB PTR IN TCB         A34037 06689802
MRZEUSBT EQU   X'01'               USED IN DEB FILE MASK          M6068 06699902
*                                  TO SHOW MER/ZEUS DEVICE        M6068 06709902
RETRY    EQU   4                   ESTAE-INDICATE RETRY          Y02081 06713202
FLAGBYTE EQU   0                   1ST BYTE(FLAGS) IN SEGTAB     YM4648 06715602
LISTSIZ  EQU   16                  LENGTH OF XGMLIST             YM3247 06716002
LASTCTL  EQU   X'40'               LAST CTL RECORD IN BUFFER     Y02081 06716402
LASTREC  EQU   X'80'               LAST RECORD HAS BEEN READ     Y02081 06716502
RLDEND   EQU   X'0F'               LAST RLD HAS BEEN READ        Y02081 06716602
FTIOBFL  EQU   X'02'               PCI FETCH FLAG IN IOB         Y02081 06716702
SPINBYTE EQU   13                  OFFSET TO BYTE ON WHICH BIT   Y02081 06729202
*                                  SPIN IS PERFORMED IN RLD BUF  Y02081 06739202
CNTWT    EQU   X'80'               COUNT BUF PSEUDO WAIT                06741202
IOERRBT  EQU   X'20'               BIT IN I/O ECB TESTED AFTER   Y02081 06741602
*                                  EXCP -- 0=ERROR, 1=NORMAL     Y02081 06742002
SGTBNTLS EQU   4                   OFFSET IN SEGTAB FOR NOTELIST Y02081 06742102
*                                  ADDRESS                       Y02081 06746302
SGTBTST  EQU   X'40'               SEGTAB TEST INDICATOR BIT     Y02081 06748302
SVRBWKA  EQU   X'74'               OFFSET TO FETCH WORKAREA      Y02081 06750302
*                                  POINTER IN PROG MGR SVRB      Y02081 06750402
POSTIOSB EQU   X'7F'               IOSB NORMAL COMP.  @ZA10583   YM8292 06750537
DEBFREE  EQU   X'EF'               TURN OFF DEB GM FLAG          ZA0135 06754702
PGMASK   EQU   B'0001'             PGFIX RETURN MASK           @ZA07064 06756737
         EJECT                                                          06759037
*------- GENERAL REGISTER EQUATES                                       06763202
WKREGF   EQU   0                   WORK REGISTER                        06767402
WKREGA   EQU   1                   WORK REGISTER                        06780002
WKREGB   EQU   2                   WORK REGISTER                        06840002
WKREGD   EQU   4                   WORK REGISTER                        06870002
WKREGC   EQU   5                   WORK REGISTER                 Y02081 06900002
DCBREG   EQU   7                   DCB PTR PASSED TO FETCH BY CALLER    06960002
LISTREG  EQU   8                   NOTELIST PTR PASSED BY OVLY SUP      06990002
SEGREG   EQU   9                   SEGMENT NO. PASSED BY OVLY SUP       07020002