* /* START OF SPECIFICATIONS ****                                       00050000
*02* PROCESSOR = ASSEMBLER                                              00052000
**** END OF SPECIFICATIONS ***/                                         00054000
         TITLE ' TEXT AND MITAB MACRO DEFINITIONS '                     00060000
         MACRO                                                          00120000
&LABEL   TEXT  &ADDR1,&DELIM,&ADDR2                                     00180000
.*********************************************************************. 00240000
.*  CHECK FOR DELIMITER AND ADVANCE TEXT POINTER WHEN APPROPRIATE    *. 00300000
.*********************************************************************. 00360000
         GBLC  &TCP                                                     00420000
&LABEL   C     &TCP,OPNEND              DOES TEXT END HERE ?            00480000
         BNL   &ADDR1                   YES                             00540000
         AIF   ('&DELIM' EQ '').MEND    GO IF NO DELIMITER SPECIFIED    00600000
         GOIF  &DELIM,NE=&ADDR2         GO IF DELIMITER NOT IN TEXT     00660000
         LA    &TCP,NXTCH               POINT TO NEXT CHARACTER         00720000
.MEND    MEND                                                           00780000
         SPACE 5                                                        00840000
         MACRO                                                          00900000
&NAME    MITAB                                                          00960000
.*********************************************************************. 01020000
.* THIS MACRO IS ONLY CALLED ONCE.ITS PURPOSE IS TO SET THE GLOBAL   *. 01080000
.* VARIABLES USED IN THE CONSTRUCTION OF THE FAR TABLE.THE VARIABLES *. 01140000
.* CORRESPOND TO THE BIT SETTINGS DEFINED IN THE FARENT DSECT - IE   *. 01200000
.* &FSNLIT CORRESPONDS TO FSNLIT ETC.                                *. 01260000
.*********************************************************************. 01320000
         GBLA  &FSNLIT,&FSALOC,&FILEN,&FIALOC                           01380000
         GBLA  &RIDEC,&RIBND,&RIDIV                                     01440000
         GBLA  &RSMOD,&RSALW,&RSDIV                                     01500000
&FSNLIT  SETA  32768                                                    01560000
&FSALOC  SETA  4096                                                     01620000
&FILEN   SETA  2048                                                     01680000
&FIALOC  SETA  256                                                      01740000
&RIDEC   SETA  128                                                      01800000
&RIBND   SETA  16                                                       01860000
&RIDIV   SETA  1                                                        01920000
&RSMOD   SETA  &RIDEC                                                   01980000
&RSALW   SETA  8                                                        02040000
&RSDIV   SETA  &RIDIV                                                   02100000
&NAME    EQU   *                                                        02160000
         MEND                                                           02220000
         TITLE ' OPND MACRO DEFINITION '                                02280000
         MACRO                                                          02340000
&NAME    OPND  &T,                      TYPE                           X02400000
               &A,                      ALLOCATION                     X02460000
               &R                       RESTRICTIONS                    02520000
.*********************************************************************. 02580000
.* THIS MACRO IS CALLED TO CONSTRUCT AN OPERAND ENTRY IN THE FAR     *. 02640000
.* TABLE.NO CODE IS GENERATED - THE TABLE ENTRY IS PASSED IN THE     *. 02700000
.* GLOBAL &E(&I) TO THE NEAREST FOLLOWING OPCD MACRO.                *. 02760000
.* THE VALID PARAMETER FORMATS ARE -                                 *. 02820000
.*                                                                   *. 02880000
.* PARM MEANING      FORMAT   DESCRIPTION                            *. 02940000
.* ---  -------      ------   -----------                            *. 03000000
.* &T   TYPE         I OR R   IMMEDIATE,REGISTER OR MASK.            *. 03060000
.*                   S        STORAGE,SHIFT OR I/O UNIT.FORMAT D(B). *. 03120000
.*                   SX       INDEXED STORAGE.FORMAT IS D(X,B).      *. 03180000
.*                   SL       STORAGE WITH LENGTH.FORMAT IS D(L,B).  *. 03240000
.* &A   ALLOCATION   N        N IS 1,2 OR 3 AND SETS  ALLOCATION FOR *. 03300000
.*                            TYPE I OPERANDS TO FIRST,SECOND OR     *. 03360000
.*                            BOTH HOLFBYTES OF SECOND INSTR BYTE.   *. 03420000
.*                            FOR TYPE S OPERANDS,SETS ALLOCATION TO *. 03480000
.*                            SECOND,THIRD OR FOURTH HALWORD,RESP.   *. 03540000
.*                   (N,M)    USED FOR SX AND SL TYPE OPERANDS.N     *. 03600000
.*                            GIVE S PART ALLOCATION M I PART ALLOC. *. 03660000
.* &R   RESTRICTIONS N OR (N,M) FOR I OPERANDS.N IS DIVISIBILITY     *. 03720000
.*                            (POWER OF 2) AND M IS UPPER BOUND      *. 03780000
.*                            (POWER OF 2).                          *. 03840000
.*                   A OR                                            *. 03900000
.*                   (A,B,..) FOR S,SX AND SL OPERANDS.A,B ETC CAN   *. 03960000
.*                            BE EITHER OF                           *. 04020000
.*                            H,F,D     H,F OR D ALIGNMENT           *. 04080000
.*                            ALW       ALWAYS CHECK ALIGNMENT       *. 04140000
.*                            NLIT      NO LITERAL ALLOWED           *. 04200000
.*                            MOD       MODIFIED AT EXECUTION        *. 04260000
.*********************************************************************. 04320000
         GBLA  &E(5)                    FAR ENTRY CANDIDATE             04380000
         GBLA  &I                       ENTRY INDEX                     04440000
         GBLA  &M                       MAXIMUM NUMBER OF OPERANDS      04500000
         GBLB  &ERR                     ERROR HAS OCCURRED              04560000
         GBLA  &FSNLIT,&FSALOC,&FILEN,&FIALOC     FLAGS                 04620000
         GBLA  &RIDEC,&RIBND,&RIDIV     MORE FLAGS                      04680000
         GBLA  &RSMOD,&RSALW,&RSDIV     GOOD GRIEF,MORE FLAGS           04740000
         LCLA  &J                       SUBSCRIPT                       04800000
&I       SETA  &I+1                     POINT TO NEXT ENTRY             04860000
         AIF   (&I LE &M).CT                                            04920000
         MNOTE 8,'TOO MANY OPERANDS'                                    04980000
.ERR     ANOP                                                           05040000
&ERR     SETB  1                                                        05100000
         MEXIT                                                          05160000
.* CHECK TYPE                                                           05220000
.*                                                                      05280000
.CT      AIF   ('&T' EQ 'R' OR '&T' EQ 'I').I                           05340000
         AIF   ('&T' EQ 'S').S                                          05400000
         AIF   ('&T' EQ 'SX').SX                                        05460000
         AIF   ('&T' EQ 'SL').SL                                        05520000
         MNOTE 8,'INVALID TYPE'                                         05580000
         AGO   .ERR                                                     05640000
.* I (OR R) TYPE OPERAND                                                05700000
.*                                                                      05760000
.I       AIF   (N'&A NE 1).IVP                                          05820000
         AIF   (&A EQ 1 OR &A EQ 2).I12                                 05880000
&E(&I)   SETA  &A*&FIALOC               SET FIALOC                      05940000
         AGO   .RIDIV                                                   06000000
.I12     ANOP                                                           06060000
&E(&I)   SETA  (3-&A)*&FIALOC                                           06120000
.RIDIV   AIF   (N'&R EQ 0).OK                                           06180000
         AIF   (K'&R(1) EQ 0).RIBND                                     06240000
&E(&I)   SETA  &E(&I)+&R(1)*&RIDIV      SET RIDIV                       06300000
.RIBND   AIF   (N'&R EQ 1).OK                                           06360000
         AIF   (K'&R(2) EQ 0).RIDEC                                     06420000
&E(&I)   SETA  &E(&I)+&R(2)*&RIBND      SET RIBND                       06480000
.RIDEC   AIF   (N'&R EQ 2).OK                                           06540000
         AIF   ('&R(3)' NE 'DEC').IVP                                   06600000
&E(&I)   SETA  &E(&I)+&RIDEC            SET RIDEC                       06660000
         AGO   .OK                                                      06720000
.* S TYPE OPERAND                                                       06780000
.S       AIF   (N'&A NE 1).IVP                                          06840000
.SP      ANOP                                                           06900000
&E(&I)   SETA  &E(&I)+&A(1)*&FSALOC     SET FSALOC                      06960000
.RS      AIF   (&J GE N'&R).OK                                          07020000
&J       SETA  &J+1                                                     07080000
         AIF   ('&R(&J)' EQ 'H').H                                      07140000
         AIF   ('&R(&J)' EQ 'F').F                                      07200000
         AIF   ('&R(&J)' EQ 'D').D                                      07260000
         AIF   ('&R(&J)' EQ 'ALW').RSALW                                07320000
         AIF   ('&R(&J)' EQ 'NLIT').FSNLIT                              07380000
         AIF   ('&R(&J)' EQ 'MOD').RSMOD                                07440000
.IVP     MNOTE 8,'INVALID PARAMETER'                                    07500000
         AGO   .ERR                                                     07560000
.H       ANOP                                                           07620000
&E(&I)   SETA  &E(&I)+1*&RSDIV          SET RSDIV FOR H ALIGNMENT       07680000
         AGO   .RS                                                      07740000
.F       ANOP                                                           07800000
&E(&I)   SETA  &E(&I)+2*&RSDIV          SET RSDIV FOR F ALIGNMENT       07860000
         AGO   .RS                                                      07920000
.D       ANOP                                                           07980000
&E(&I)   SETA  &E(&I)+3*&RSDIV          SET RSDIV FOR D ALIGNMENT       08040000
         AGO   .RS                                                      08100000
.RSALW   ANOP                                                           08160000
&E(&I)   SETA  &E(&I)+&RSALW            SET RSALW                       08220000
         AGO   .RS                                                      08280000
.FSNLIT  ANOP                                                           08340000
&E(&I)   SETA  &E(&I)+&FSNLIT           SET FSNLIT                      08400000
         AGO   .RS                                                      08460000
.RSMOD   ANOP                                                           08520000
&E(&I)   SETA  &E(&I)+&RSMOD            SET RSMOD                       08580000
         AGO   .RS                                                      08640000
.* SX TYPE OPERAND                                                      08700000
.*                                                                      08760000
.SX      AIF   (N'&A NE 2).IVP                                          08820000
         AIF   (&A(2) EQ 1 OR &A(2) EQ 2).SX12                          08880000
&E(&I)   SETA  &E(&I)+&A(2)*&FIALOC     SET FIALOC                      08940000
         AGO   .SP                                                      09000000
.SX12    ANOP                                                           09060000
&E(&I)   SETA  &E(&I)+(3-&A(2))*&FIALOC                                 09120000
         AGO   .SP                                                      09180000
.* SL TYPE OPERAND                                                      09240000
.*                                                                      09300000
.SL      ANOP                                                           09360000
&E(&I)   SETA  &E(&I)+&FILEN            SET FILEN                       09420000
         AGO   .SX                                                      09480000
.OK      ANOP                                                           09540000
         MEND                                                           09600000
         TITLE ' OPCD MACRO DEFINITION '                                09660000
         MACRO                                                          09720000
&NAME    OPCD  &O                                                       09780000
.*********************************************************************. 09840000
.* THIS MACRO IS CALLED TO GENERATE AN INSTRUCTION ENTRY IN THE FAR  *. 09900000
.* TABLE (IF AN IDENTICAL ONE IS NOT ALREADY THERE) AND TO CONSTRUCT *. 09960000
.* A POINTER IN THE FGT OR FGTX TABLE TO THE FAR ENTRY FOR THE       *. 10020000
.* INSTRUCTION.                                                      *. 10080000
.* THE OPERAND IS THE ONE- OR TWOBYTE OPCODE FOR THE INSTRUCTION.    *. 10140000
.* FOR EXTENDED BRANCHES,TWO BYTES MUST BE USED - EG X'07F0' FOR BR  *. 10200000
.*********************************************************************. 10260000
         GBLA  &E(5)                    CANDIDATE FOR FAR ENTRY         10320000
         GBLA  &I                       INDEX IN ENTRY                  10380000
         GBLB  &ERR                     ERROR HAS OCCURRED              10440000
         GBLA  &M                       MAXIMUM NUMBER OF OPERANDS      10500000
         GBLA  &F1(255),&F2(255),&F3(255),&F4(255),&F5(255)             10560000
         GBLA  &FGT1(128),&FGT2(128)    **** STUPID ASSEMBLER ***       10620000
         GBLA  &FGTXO(255),&FGTXP(255)  FGT FOR EXTENDED OPCODES        10680000
         GBLA  &FP                      FAR POINTER                     10740000
         GBLA  &XOCP                    POINTER FOR EXTENDED OPCODES    10800000
         LCLA  &J,&N                    INDICES                         10860000
         LCLC  &FOP(5)                  FAR OPERANDS                    10920000
         AIF   (&ERR).ERR                                               10980000
.L1      ANOP                                                           11040000
&J       SETA  &J+1                                                     11100000
         AIF   (&J GT &FP).NEW          GO MAKE NEW ENTRY               11160000
         AIF   (&F1(&J) NE &E(1)).L1    GO IF 1:ST OPND NOT EQUAL       11220000
         AIF   (&F2(&J) NE &E(2)).L1    GO IF 2=ND OPND NOT EQUAL       11280000
         AIF   (&F3(&J) NE &E(3)).L1    GO IF 3=RD OPND NOT EQUAL       11340000
         AIF   (&F4(&J) NE &E(4)).L1    GO IF 4=TH OPND NOT EQUAL       11400000
         AIF   (&F5(&J) NE &E(5)).L1    GO IF 5=TH OPND NOT EQUAL       11460000
.OLD     AIF   (&O GT X'FF').XOC        GO IF EXTENDED OPCODE           11520000
         AIF   (&O GT 127).FGT2                                         11580000
&FGT1(&O+1)   SETA  &J-1                SET FAR POINTER IN FGT          11640000
         AGO   .OK                                                      11700000
.FGT2    ANOP                                                           11760000
&FGT2(&O-127) SETA  &J-1                SET FAR POINTER IN FGT          11820000
         AGO   .OK                                                      11880000
.XOC     ANOP                                                           11940000
&XOCP    SETA  &XOCP+1                                                  12000000
&FGTXO(&XOCP) SETA &O                                                   12060000
&FGTXP(&XOCP) SETA  &J-1                SET FAR POINTER IN FGTX         12120000
         AGO   .OK                                                      12180000
.NEW     ANOP                                                           12240000
&N       SETA  2                                                        12300000
.L2      AIF   (&N GT &M).GEN                                           12360000
&FOP(&N) SETC  ','.'&E(&N)'                                             12420000
&N       SETA  &N+1                                                     12480000
         AGO   .L2                                                      12540000
.GEN     ANOP                                                           12600000
&NAME    DC  AL2(&E(1)&FOP(2)&FOP(3)&FOP(4)&FOP(5))                     12660000
&FP      SETA  &FP+1                                                    12720000
&F1(&FP) SETA  &E(1)                                                    12780000
&F2(&FP) SETA  &E(2)                                                    12840000
&F3(&FP) SETA  &E(3)                                                    12900000
&F4(&FP) SETA  &E(4)                                                    12960000
&F5(&FP) SETA  &E(5)                                                    13020000
         AGO   .OLD                                                     13080000
.ERR     MNOTE 8,'NO TABLE ENTRIES GENERATED'                           13140000
         AGO   .END                                                     13200000
.OK      ANOP                                                           13260000
         MNOTE *,'FAR ENTRY NUMBER IS &J'                               13320000
.END     ANOP                                                           13380000
&E(1)    SETA  0                                                        13440000
&E(2)    SETA  0                                                        13500000
&E(3)    SETA  0                                                        13560000
&E(4)    SETA  0                                                        13620000
&E(5)    SETA  0                                                        13680000
&I       SETA  0                                                        13740000
&ERR     SETB  0                                                        13800000
         MEND                                                           13860000
         TITLE ' MIEND MACRO DEFINITION '                               13920000
         MACRO                                                          13980000
&NAME    MIEND                                                          14040000
.*********************************************************************. 14100000
.* THIS MACRO IS ONLY CALLED ONCE.ITS PURPOSE IS TO GENERATE CODE    *. 14160000
.* FOR THE FGT AND FGTX TABLES THAT HAVE BEEN GUILT BY PRECEDING     *. 14220000
.* OPCD MACRO INSTRUCTIONS.                                          *. 14280000
.*********************************************************************. 14340000
         GBLA  &FGT1(128),&FGT2(128)                                    14400000
         GBLA  &FGTXO(255),&FGTXP(255),&XOCP                            14460000
         LCLA  &J,&N                                                    14520000
&NAME    EQU   *    FAR GET TABLE FOR INSTRUCTIONS WITH ONE-BYTE OPCODE 14580000
.L1      AIF   (&J GE 256).XOC                                          14640000
         AIF   (&J GT 127).FGT2                                         14700000
         DC    AL1(&FGT1(&J+1),&FGT1(&J+2),&FGT1(&J+3),&FGT1(&J+4),&FGT?14760000
               1(&J+5),&FGT1(&J+6),&FGT1(&J+7),&FGT1(&J+8))             14820000
         AGO   .COM                                                     14880000
.FGT2    ANOP                                                           14940000
         DC    AL1(&FGT2(&J-127),&FGT2(&J-126),&FGT2(&J-125),&FGT2(&J-1X15000000
               24),&FGT2(&J-123),&FGT2(&J-122),&FGT2(&J-121),&FGT2(&J-1X15060000
               20))                                                     15120000
.COM     ANOP                                                           15180000
&J       SETA  &J+8                                                     15240000
         AGO   .L1                                                      15300000
.XOC     ANOP                                                           15360000
&J       SETA  1                                                        15420000
&NAME.X  EQU   *    FAR GET TABLE FOR INSTRUCTIONS WITH EXTENDED OPCODE 15480000
.*                                                                      15540000
.* THIS SECTION ASSUMES THAT EXTENDED INSTRUCTIONS HAVE BEEN ENTERED    15600000
.* SORTED IN ASCENDING ORDER ON THE OPCODE.                             15660000
&N       SETA  1                                                        15720000
         AIF   (&XOCP EQ 0).OUT                                         15780000
.L2      AIF   (&FGTXO(&J)/256 NE &FGTXO(&N)/256).GEN                   15840000
         AIF   (&FGTXP(&J) NE &FGTXP(&N)).GEN                           15900000
&N       SETA  &N+1                                                     15960000
         AIF   (&N LE &XOCP).L2                                         16020000
.GEN     DC    AL2(&FGTXO(&N-1))        MAX OPCODE                      16080000
         DC    AL1(&FGTXP(&N-1))        FAR ENTRY NUMBER                16140000
&J       SETA  &N                                                       16200000
         AIF   (&N LE &XOCP).L2                                         16260000
.OUT     MEND                                                           16320000
         TITLE ' GLOBAL DECLARATIONS AND INITIAL SETTINGS FOR X5M '     16380000
* THE GLOBAL &M IS THE MAXIMUM NUMBER OF OPERANDS IN ANY MACHINE        16440000
* INSTRUCTION.EACH ENTRY IN FAR CONSISTS OF &M HALFWORDS.THE            16500000
* MAXIMUM NUMBER THAT CAN BE ACCOMODATED WITH PRESENT BIT ASSIGNMENTS   16560000
* IS 5 - THREE STORAGE OPERANDS AND TWO IMMEDIATE OPERANDS.             16620000
         GBLA &M                                                        16680000
* REGISTERS                                                             16740000
         GBLC  &SCH                     SCRATCH REG                     16800000
         GBLC  &RTN                     RETURN REG                      16860000
         GBLC  &COM                     PHASE COMMON AREA ADDRESS       16920000
         GBLC  &SCR                     SCRATCH - LOCAL USE ONLY        16980000
         GBLC  &WRK                     WORK                            17040000
         GBLC  &TBP                     TEXT BASE POINTER               17100000
         GBLC  &TCP                     TEXT CURRENT POINTER            17160000
         GBLC  &FRG                     FAR TABLE POINTER               17220000
         GBLC  &ESD1                    ESDID OF EXPRESSION 1           17280000
         GBLC  &EXP1                    VALUE OF EXPRESSION 1           17340000
         SPACE 2                                                        17400000
&M       SETA  3                                                        17460000
&COM     SETC  'R7'                                                     17520000
&SCR     SETC  'R14'                                                    17580000
&WRK     SETC  'R6'                                                     17640000
&TBP     SETC  'R5'                                                     17700000
&TCP     SETC  'R10'                                                    17760000
&SCH     SETC  'R15'                                                    17820000
&RTN     SETC  'R9'                                                     17880000
&ESD1    SETC  'R6'                                                     17940000
&EXP1    SETC  'R4'                                                     18000000
&FRG     SETC  'R3'                                                     18060000
* NOTE - R1 AND R2 ARE DESTROYED IN THIS MODULE                         18120000
         JHEAD 'MACHINE INSTRUCTION PROCESSOR',                        X18180000
               PHASEID=X5M,                                            X18240000
               LEVEL=10                                                 18300000
*FUNCTION/OPERATION-                                                  * 18360000
*   ASSEMBLE MACHINE INSTRUCTIONS.                                    * 18420000
*   THE OPERAND LIST OF A MACHINE INSTRUCTION CONSISTS OF NONE OR     * 18480000
*   MORE OPERANDS,SEPARATED BY COMMAS.EACH OPERAND IS CONSIDERED      * 18540000
*   TO CONSIST OF AN OPTIONAL 'I PART' AND AN OPTIONAL 'S PART'.      * 18600000
*   THE FOLLOWING OPERAND TYPES ARE RECOGNIZED -                      * 18660000
*                                                                     * 18720000
*   TYPE FORMAT DESCRIPTION                       I PART   S PART     * 18780000
*   ---- ------ -----------                       -----    ------     * 18840000
*   I    I      IMMEDIATE,MASK OR REGISTER FIELD   I        N/A       * 18900000
*   S    D(B)   STORAGE,OR SHIFT OR I/O UNIT       N/A      D(B)      * 18960000
*   SX   D(X,B) INDEXED STORAGE OPERAND            X        D(B)      * 19020000
*   SL   D(L,B) STORAGE OPERAND WITH LENGTH FIELD  L        D(B)      * 19080000
*                                                                     * 19140000
*   EACH OPERAND IS PROCESSED SEPARATELY.THE PROCESSING IS DRIVEN     * 19200000
*   BY A TABLE -FAR- THAT DESCRIBES THE OPERAND FORMAT,ALLOCATION     * 19260000
*   (IN ASSEMBLED INSTRUCTION) AND RESTRICTIONS.THE TABLE ENTRY       * 19320000
*   FORMAT IS DESCRIBED WITH THE DSECT 'FARENT'.                      * 19380000
*                                                                     * 19440000
*ENTRY POINT-                                                         * 19500000
*        X5M.                                                         * 19560000
*                                                                     * 19620000
*INPUT-                                                               * 19680000
*   INTERNAL TEXT RECORD - READ BY PHASE MAINLINE TO JTEXT BUFFER.    * 19740000
*                                                                     * 19800000
*OUTPUT-                                                              * 19860000
*   ASSEMBLED TEXT IN LEFTHF (IN PHASE COMMON).                       * 19920000
*                                                                     * 19980000
*EXTERNAL ROUTINES-                                                   * 20040000
*        X5V - EVALUATE EXPRESSIONS.                                  * 20100000
*        X5P - PRINT AND PUNCH.                                       * 20160000
*        X5L - LOG ERRORS.                                            * 20220000
*                                                                     * 20280000
*EXITS,NORMAL-                                                        * 20340000
*   RETURN TO PHASE MAINLINE.                                         * 20400000
*                                                                     * 20460000
*EXITS,ERROR-                                                         * 20520000
*   N/A                                                               * 20580000
*                                                                     * 20640000
*TABLES/WORK AREAS-                                                   * 20700000
*   FAR - MACHINE INSTRUCTION TABLE(SEE ABOVE).                       * 20760000
*   USING - USING TABLE.                                              * 20820000
*                                                                     * 20880000
*ATTRIBUTES-                                                          * 20940000
*   REFRESHABLE.                                                      * 21000000
*                                                                     * 21060000
*NOTES-                                                               * 21120000
*   INSTRUCTIONS FOR MODIFYING THE FAR TABLE ARE INCLUDED WITH THE    * 21180000
*   TABLE.TO ACCOMODATE MORE THAN 3 OPERANDS,CHANGE THE GLOBAL &M.    * 21240000
*   TO HANDLE THREE STORAGE OPERANDS,LEFTHF MUST BE EXPANDED.         * 21300000
*                                                                     * 21360000
         SPACE 2                                                        21380000
         PRINT OFF                      DON'T PRINT JCOMMON COPY CODE   21470000
         COPY  JCOMMON                  JCOMMON COPY CODE               21480000
         PRINT OFF                      DON'T PRINT JTEXT COPY CODE     21530000
         COPY  JTEXT                    JTEXT COPY CODE                 21600000
         PRINT OFF                      DON'T PRINT THE X5COM COPY CODE 21660000