* /* START OF SPECIFICATIONS ****                                       00150000
*02* PROCESSOR = ASSEMBLER                                              00160000
**** END OF SPECIFICATIONS ***/                                         00170000
         LCLC  &TBP                     TEXT BASE POINTER               00180000
         LCLC  &BAL                     LINK REGISTER                   00200000
         LCLC  &OPT                     OUTPUT POINTER                  00300000
         LCLC  &LEN                     FIELD LENGTH                    00400000
         LCLC  &SCR                     SCRATCH REGISTER                00500000
         LCLC  &SCH                     ALSO SCRATCH                    00600000
         LCLC  &COM                     PHASE WORK AREA POINTER         00700000
         LCLC  &IPT                     INPUT FIELD ADDRESS             00800000
         LCLC  &PRN                     PRINT BUFFER POINTER            00900000
         SPACE 5                                                        01000000
&SCR     SETC  'R1'                                                     01100000
&COM     SETC  'R7'                                                     01200000
&OPT     SETC  'R3'                                                     01300000
&IPT     SETC  'R4'                                                     01400000
&BAL     SETC  'R6'                                                     01500000
&TBP     SETC  'R5'                                                     01600000
&LEN     SETC  'R14'                                                    01700000
&PRN     SETC  'R2'                                                     01800000
&SCH     SETC  'R15'                                                    01900000
         SPACE 5                                                        02000000
         JHEAD 'ASSEMBLY PHASE - PRINT ROUTINE',                       X02100000
               PHASEID=X5P,                                            X02200000
               LEVEL=10                                                 02300000
*                                                                     * 02400000
*FUNCTION/OPERATION-                                                  * 02500000
*   THIS ROUTINE IS CALLED TO LIST AND PUNCH ALL TEXT OUTPUT FROM     * 02600000
*   THE ASSEMBLY PORTION OF THE ASSEMBLE. THIS ROUTINE RECONSTRUCTS   * 02700000
*   THE ASSEMBY PORTION OF THE ASSEMBLER. THIS ROUTINE RECONSTRUCTS   * 02800000
*   TEXT FOR THE PRINT FILE FROM THE EDITED TEXT RECORD. IT ALSO USES * 02900000
*   INPUT FROM LEFTHF TO CONSTRUCT THE LEFT HALF OF THE PRINT IMAGE,  * 03000000
*   AND TO BUILD PUNCH RECORD FOR THE PUNCH AND LINK FILES.           * 03100000
*                                                                     * 03200000
*ENTRY POINT-                                                         * 03300000
*        PRN100                                                       * 03400000
*                                                                     * 03500000
*INPUT-                                                               * 03600000
*   EDITED TEXT RECORDS ON JINFILE.                                   * 03700000
*   THE LEFT HALF VALUES IN A 19 BYTE TABLE CALLED LEFT HALF          * 03800000
*                                                                     * 03900000
*OUTPUT-                                                              * 04000000
*   ASSEMBLY LISTINGS TO THE PRINT FILE.                              * 04100000
*   RELOCATABLE OBJECT TEXT TO THE PUNCH AND LINK FILES.              * 04200000
*                                                                     * 04300000
*EXTERNAL ROUTINES                                                    * 04400000
*        JPUTL                                                        * 04500000
*        JPUNCH                                                       * 04600000
*                                                                     * 04700000
*EXITS, NORMAL-                                                       * 04800000
*   EXITS TO THE CALLING ROUTINE THROUGH THE JRETURN MACRO.           * 04900000
*                                                                     * 05000000
*EXITS, ERROR-                                                        * 05100000
*   NONE                                                              * 05200000
*                                                                     * 05300000
*TABLES/WORK AREAS-                                                   * 05400000
*   THE DEFINITION OF LEFTHF IS:                                      * 05500000
*                                                                     * 05600000
*   BYTES BITS  DATA                                                  * 05700000
*                                                                     * 05800000
*                                                                     * 05900000
*   00-03       LOCATION OF ENTRY                                     * 06000000
*   04-11       DC DATA IF ENTRY IS A DC OR CCW                       * 06100000
*   04-05       OPCODE  IF ENTRY IS A MACHINE OPERATION               * 06200000
*               BYTE 05 MAY ALSO CONTAIN LENGTH, REGISTERS, IMEDIATE  * 06300000
*               DATA.                                                 * 06400000
*   06-07       BASE-DISPLACEMENT 1                                   * 06500000
*   08-09       BASE-DISPLACEMENT 2                                   * 06600000
*   10-11       FLAGS                                                 * 06700000
*          0-1  01 ENTRY IS ALIGNMENT.                                * 06800000
*               10 ENTRY IS A DC                                      * 06900000
*               11 ENTRY IS AN EQUATE                                 * 07000000
*           2   BASE-DISPLACEMENT 1 PRESENT                           * 07100000
*           3   BASE-DISPLACEMENT 2 PRESENT                           * 07200000
*          4-7  LENGTH OF ENTRY. (IF ALL BITS ON DON'T PRINT LEFT HALF* 07300000
*   12-15       ADDRESS 1                                             * 07400000
*   16-19       ADDRESS 2                                             * 07500000
*   TOTAL LENGTH OF LEFT HALF IS 20 BYTES                             * 07600000
*                                                                     * 07700000
*ATTRIBUTES-                                                          * 07800000
*   REFRESHABLE                                                       * 07900000
*                                                                     * 08000000
*NOTES                                                                * 08100000
*   NONE                                                              * 08200000
*                                                                     * 08300000
*                                                                     * 08400000
         EJECT                                                          08500000
         PRINT OFF                      DON'T PRINT JCOMMON COPY CODE   08550000
         COPY  JCOMMON                  INCLUDE COMMON DSECT            08600000
         PRINT OFF                      DON'T PRINT JTEXT COPY CODE     08700000
         COPY  JTEXT                    INCLUDED TEXT DSECT             08800000
         PRINT OFF                      DON'T PRINT X5COM COPY CODE     08900000
         COPY  X5COM                    INCLUED ASSEMBLY PHASE COMMON   09000000
         PRINT ON                       PRINT PRINT AREA DSECT          09100000
PRNIMG   DSECT                                                          09200000
*   PRINT WORK AREA                                                     09300000
PRNLN    DS    0CL121                   LENGTH OF PRINT LINE            09400000
CCTRL    DS    C                        CARRIAGE CONTROL                09500000
TITCD    DS    CL8                      TITLE CODE FIELD                09600000
         DS    C                        BLANKS                          09700000
TITLEO   DS    CL100                    TITLE FROM ASSEMBLY             09800000
         DS    2C                       BLANKS                          09900000
PAGEO    DS    CL4                      PAGE FOR HEADING                10000000
PGNO     DS    CL5                      PAGE NUMBER                     10100000
         ORG   PRNIMG                   RE-ORG FOR HEADING LINE 2       10200000
         DS    C                        CARRIAGE CONTROL ALREADY DEFINE 10300000
         DS    2C                       BLANKS                          10400000
SNDHDO   DS    CL56                     HEADING 2                       10500000
         DS    38C                      BLANKS                          10600000
SNDHID   DS    CL24                     ID AND DATE PLUS TIME           10700000
         ORG   PRNIMG                   RE-ORG FOR LIST EACH LINE       10800000
         DS    C                        CARRIAGE CONTROL                10900000
LOCO     DS    CL6                      LOCATION                        11000000
         DS    C                        BLANK                           11100000
OPCDO    DS    CL4                      OP CODE                         11200000
IMEDO    EQU   OPCDO+2                  IMEDIATE, RX, OR LENGTH FIELD   11300000
         DS    C                        BLANK                           11400000
BDPL1    DS    CL4                      BASE-DISPLACEMENT 1             11500000
         DS    C                        BLANK                           11600000
BDPL2    DS    CL4                      BASE-DISPLACEMENT 2             11700000
ADDR1    DS    CL6                      ADDRESS 1                       11800000
ADDR2    DS    CL6                      ADDRESS 2                       11900000
         DS    C                        BLANK                           12000000
STMTNO   DS    CL5                      STATEMENT NUMBER                12100000
GENFLG   DS    C                        GENERATION INDICATION           12200000
NAMFLD   EQU   *                        NAME FIELD                      12300000
COMMENT  DS    0CL80                    COMMENT STATEMENTS COME HERE    12400000
         ORG   PRNIMG                   RE-ORG FOR OPCODE               12500000
OPFLD    DS    0C                       OPCODE FIELD                    12600000
CMNFLD   DS    0C                       COMMENT FIELD                   12700000
OPNFLD   DS    0C                       OPERAND FIELD                   12800000
MRGFLD   DS    0C                       MARGIN OR POST END FIELD        12900000
         ORG   PRNIMG                   REORG FOR ERROR NOTE            13000000
         DS    CL(1+9)                  CARR CTL + BLANK                13100000
ERRLOC   DC    C'*** ERROR ***'                                         13200000
         ORG                                                            13300000
PEJECT   EQU   0                        CARRIAGE CONTROL EJECT          13400000
P1SPACE  EQU   1                        CARRIAGE CONTROL SPACE 1        13500000
P2SPACE  EQU   2                        CARRIAGE CONTROL SPACE 2        13600000
P3SPACE  EQU   3                        CARRIAGE CONTROL SPACE 3        13700000
GENIND   EQU   JPLUS                    MACRO GENERATED INDICATOR       13800000
JTEXTA   DSECT                                                          13900000
         ORG   JTOCO                                                    14000000
OPTR     DSW   CDPTR                    CARD POINTER FLAG               14100000
         ORG   JTOCO                    REORG FOR OTHER POINTERS        14200000
OCPTR    DS    C                        OUTPUT COLUMN POINTER           14300000
LENGTH   DS    C                        FIELD (TRUE) LENGTH             14400000
FIELD    EQU   *                                                        14500000
         EJECT                                                          14600000
CRDSCT   DSECT  ,                       DSECT FOR TXT CARDS             14700000
CRDID    DS    CL4                      12-2-9 PUNCH AND TXT            14800000
         ORG   CRDID+1                  POINT TO AREA THAT NEEDS TRANS  14900000
CRDTR    DS    0CL71                    LENGTH OF TRANSLATE             15000000
         ORG   ,                        ORG BACK TO NEXT BYTE           15100000
         DS    C                        BLANK                           15200000
CRDVLO   DS    CL3                      ADDRESS OF FIRST BYTE OF TEXT   15300000
         DS    2C                       BLANK                           15400000
CRDLEN   DS    CL2                      NUMBER OF BYTES OF TEXT         15500000
         DS    2C                       BLANK                           15600000
CRDESD   DS    CL2                      ESD OF TEXT                     15700000
CRDTXT   DS    CL56                     TEXT - MAXIMUM OF 56 BYTES      15800000
D80      EQU   80                                                       15850000
         PRINT ON                       THAT'S ALL THE COPY CODE        15950000
         EJECT                                                          15960000
         JCSECT (X5P00)                 START MODULE CSECT              16000000
* VS1 RELEASE 2.6 CHANGES                                               16050002
*D301000-305000                                                 OX00222 16060001
*A194100                                                        OX00412 16070001
* VS1 RELEASE 4 CHANGES                                                 16080002
*C608000,617200                                                 OX01764 16090002
*A633900-633940                                                 OX01764 16092002
*A366120,379500,412500                                          OX02266 16094031
*C336200,380000                                                 OX02266 16096031
*A219500                                                       @AZ13709 16096100
*D288000                                                       &AZ13795 16098100
*A633360,633380                                                @AX16963 16098900
*D633380                                                       @AZ29272 16099200
*A633340,633380                                                @AZ29272 16099500
         JMODID ,                       CREAT ROUTINE ID                16100000
         USING JTEXT,R5                 FIXED TEXT USING                16200000
         USING JTEXTA,R4                VARIABLE TEXT USING             16300000
         USING X5COM,R7                 COMMON USING                    16400000
         USING PRNIMG,R2                PRINT BUFFER USING              16500000
PRN100   JSAVE BASE=YES                 SAVE CALLING REGISTERS          16600000
         JENTRY (X5P01=PRN100)          MAKE ENTRY POINT EXTERNAL       16700000
         EJECT                                                          16800000
         GOIF  (JLIST,JDECK,JLINK),     IF DECK, LIST, LINK ARE NOT    X16900000
               OFF=PRNXIT               REQUIRED EXIT                   17000000
         GOIF  LTDECV,ON=PRNXIT         EXIT IF LITERAL REFERENCE       17100000
         CH    R10,=H'4'                IS IT PRNCAR PRINT INDEX        17120000
         BE    PRN110                   YES                             17140000
         SET   SPACECC,OFF              RESET SPACE CONTROL             17160000
PRN110   EQU   *                                                        17180000
         GOIF  JLIST,OFF=INDEX2(R10)    IF LIST IS OF USE BRANCH TABLE X17200000
                                        NUMBER 2                        17300000
         GOIF  PSTMT,OFF=PRN125         IS STATEMENT TO BE PRINTED      17400000
         GOIF  JGEN,ON=PRN150           IS TEXT GENERATED               17500000
         B     INDEX1(R10)              NO, USE BRANCH TABLE NUMBER1    17600000
INDEX1   B     PRNLST                   ENTRY IS FOR STANDARD LISTING   17700000
         B     PRNCAR                   ENTRY IS CARRIAGE CONTROL       17800000
         B     PRNPUN                   ENTRY IS FOR PUNCH STATEMENT    17900000
         B     PRNRPO                   ENTRY IS FOR REPRO CARD         18000000
         B     PRNDC                    ENTRY IS FOR A DC               18100000
         B     PRNERR                   ERROR ROUTINE                   18200000
         B     PRNMNO                   GET BUFFER FOR MNOTE            18300000
INDEX2   B     PUNRTN                   NO LIST - GO CHECK PUNCH OPTION 18400000
         B     PRNXIT                   NO LIST - EXIT                  18500000
         B     PRNPUN                   GO CHECK PUNCH OPTION           18600000
         B     PRNRPO                   GO CHECK PUNCH OPTION           18700000
         B     PUNRTN                   GO CHECK PUNCH OPTION           18800000
         B     PRNXIT                   EXIT IF NOLIST                  18900000
         B     PRNXIT                   EXIT NO MNOTE                   19000000
PRN125   GOIF  PRPP,ON=INDEX1(R10)      WAS PRINT FORCED ?              19030000
         B     INDEX2(R10)              IF NOT USE BRANCH TABLE NR 2    19060000
PRN150   GOIF  PGEN,ON=INDEX1(R10)      CHECK PRINT GEN OPTION IF ON    19100000
         CLI   JTIOP1,JTMNOTE           IS IT AN MNOTE?                 19200000
         BE    INDEX1(R10)              USE INDEX 1 IF MNOTE            19300000
         GOIF  JERR,ON=INDEX1(R10)      USE INDEX 1 IF STMT FLAGGED     19360000
         SET   DCMOP,OFF                CLEAR SWITCH TO BE SURE OX00412 19410001
         B     INDEX2(R10)              ELSE USE INDEX 2                19420000
PRNXIT   SET   (DCSWH,DCCOMP,DCMOP,DCSTRT),OFF  TURN OFF ALL DC FLAGS   19500000
         SET   PRPP,OFF                 RESET FORCED POP PUSH PRINT     19550000
PRN200   XC    DCDATA(L'LEFTHF-L'LOCATN),DCDATA ZERO LEFT HALF          19600000
         SET   COLOVLP,OFF              TURN OVERLAP SWITCH OFF         19700000
PRNLEV   JRETURN ,                      EXIT                            19800000
         EJECT                                                          19900000
PRN800   CVD   &SCR,DWORD1              CONVERT NUMBER TO DECIMAL       20000000
         UNPK  DWORD2(L'STMTNO),DWORD1  UNPACK NUMBER                   20100000
         NC    DWORD2(D5),ZMASK         MASK OUT ZONE BITS              20200000
         LA    &SCR,D4                  GET MAXIMUM BLANKS TO ADD       20300000
         LA    &SCH,DWORD2              POINT TO NUMBER                 20400000
PRN810   CLI   D0(&SCH),J0              IS LEADING DIGIT ZERO           20500000
         BNE   PRN820                   NO                              20600000
         MVI   D0(&SCH),JBLANK          YES,BLANK OUT                   20700000
         LA    &SCH,D1(,&SCH)           BUMP POIMTER                    20800000
         BCT   &SCR,PRN810             GO BACK IF COUNT NOT DEPLETE     20900000
PRN820   BR    R6                       RETURN                          21000000
         SPACE                                                          21100000
PRN600   L     R2,PRNSV1                                                21300000
         JPRINT ,                                                       21400000
         LR    &PRN,R11                 SAVE NEW BUFFER ADDRESS         21500000
         ST    R2,PRNSV1                SAVE PRINT BUFFER POINTER       21600000
         BR    &BAL                     RETURN                          21700000
         EJECT                                                          21800000
PRNLST   BAL   R6,PRINT                 GO GET PRINT LINE               21900000
         SET   SPACECC,OFF              RESET SPACE CONTROL    @AZ13709 21950000
         TM    LHFLGS,DNTPLH            IS LEFT HALF TO BE PRINTED      22000000
         BO    LIST1                    YES, GO PRINT SOURCE            22100000
         UNPK  LHWORK(D15),LEFTHF(D8)         UNPACK THE LEFT HALF OF   22200000
         UNPK  LHWORK+D14(D15),LEFTHF+D7(D8)  THE PRINT LINE FOR        22300000
         UNPK  LHWORK+D28(D15),LEFTHF+D14(D8) PRINTING                  22400000
         NC    LHWORK,ZMASK             MASK OUT ZONE BITS FROM UNPACK  22500000
         GOIF  EOUBIT,ON=PRL300         BRANCH IF ORG EQU OR USING      22550000
         TM    LHFLGS,ENTDC+ENTALN                                      22600000
         MVC   LOCO,ULOCO+D2            MOVE LOCATION TO PRINT LINE     22700000
         BZ    PRL200                   NOT ALIGNMENT OR DC             22800000
         BM    PRL100                   IS ALIGNMENT OR DC              22900000
         B     LIST1                    GO PRINT SOURCE                 23100000
PRL100   IC    R14,LHFLGS               GET LENGTH OF DATA              23200000
         LA    R15,JF                   GET MASK                        23300000
         NR    R14,R15                  AND OUT EXTRA BITS              23400000
         BZ    PRL150                   BRANCH IF NO DATA TO MOVE       23500000
         SLL   R14,D1                   DOUBLE FOR PRINT LENGTH         23600000
         BCTR  R14,0                    GET MOVE LENGTH                 23700000
         EX    R14,MVDCDA               EXECUTE MOVE TO PRINT LINE      23800000
PRL150   EQU   *                        BRANCH LABEL                    23900000
         GOIF  ENTALN,ON=PUNRTN         PRINT COMPLETE FOR ALIGNMENT    24000000
         GOIF  DCSWH,ON=DC100           DC OR CCW                       24100000
         B     LIST1                    GO PRINT CCW                    24200000
MVDCDA   MVC   OPCDO(D0),UOPCOD         EXECUTED MOVE OF DC AND ALIGN   24300000
         EJECT                                                          24400000
PRL200   TM    LHFLGS,DNTPLH            IS LENGTH OF ENTRY ZERO         24500000
         BZ    LIST1                    YES, LEFT HALF COMPLETE         24600000
         MVC   OPCDO,UOPCOD             GET OPCODE AND SECOND BYTE      24700000
         CLI   LHFLGS,D2                IS ENTRY 2 BYTES LONG           24800000
         BE    LIST1                    YES, LEFT HALF COMPLETE         24900000
         MVC   BDPL1,UBASD1             MOVE BASE-DISPLACEMENT 1        25000000
         MVC   ADDR1,UADR1+D2           MOVE ADDRESS 1 TO PRINT         25100000
         CLI   ADDR1,J0                 DOES ADDRES 1 HAVE LEADING 0    25200000
         BNE   PRL250                   NO, LEAVE AS IS                 25300000
         MVI   ADDR1,JBLANK             YES, BLANK OUT ZERO             25400000
PRL250   CLI   LHFLGS,D4                IS ENTRY LENGTH 4               25500000
         BE    LIST1                    YES, LEFT HALF COMPLETE         25600000
         MVC   BDPL2,UBASD2             MOVE BASE-DISPLACEMENT 2        25700000
         MVC   ADDR2,UADR2+D2           MOVE ADDRESS 2 TO PRINT         25800000
         CLI   ADDR2,J0                 DOES ADDRESS 2 HAVE LEADING 0   25900000
         BNE   LIST1                    NO, LEAVE AS IS                 26000000
         MVI   ADDR2,JBLANK             YES, BLANK LEADING ZERO         26100000
         B     LIST1                    GO PRINT RIGHT HALF             26200000
PRL300   MVI   LOCO,X'2F'               ZERO OUT LEFTH HALF             26250000
         MVC   LOCO+D1(D23),LOCO                                        26260000
         MVC   ADDR2-D2(D8),UADR2       MOVE VALUE FOR PRINT            26270000
         CLI   ADDR2-D2,J0              SUPRESS UP TO 3 LEADING ZEROS   26280000
         BNE   PRL400                                                   26290000
         MVI   ADDR2-D2,JBLANK                                          26292000
         CLI   ADDR2-D1,J0                                              26294000
         BNE   PRL400                                                   26296000
         MVI   ADDR2-D1,JBLANK                                          26298000
         CLI   ADDR2,J0                                                 26298400
         BNE   PRL400                                                   26298800
         MVI   ADDR2,JBLANK                                             26299200
PRL400   GOIF  JTORG,NE=LIST1           IS IT ORG ?                     26299600
         MVC   LOCO,ULOCO+D2            YES MOVE LOCTR FOR PRINT        26299700
         B      LIST1                   GO PRINT SOURCE                 26299800
         EJECT                                                          26300000
PRNCAR   LR    R3,R11                   SAVE NUMBER OF LINES TO SPACE   26400000
         GOIF  (R3),NEG=CAR600          IS IT EJECT                     26450000
         GOIF  JLNCT,LNCNT+D2,NE=CAR025  TOP OF PAGE ?                  26500000
         GOIF  SPACECC,OFF=CAR025       FIRST LINE ON NEW PAGE          26510000
         SET   SPACECC,OFF              RESET NEW PAGE INDICATOR        26520000
         LA    R3,D1(R3)                ADD 1 FOR SPACE IN HEADING      26550000
         L     R4,LNCNT                 GET LINES LEFT ON PAGE          26600000
         LA    R4,D1(R4)                COMPENSATE FOR 1 SPACE          26650000
         ST    R4,LNCNT                 SAVE NEW LNCNT                  26660000
CAR025   GOIF  TWASLC,ON=CAR050         BUFF AVAIL SO DO NOT COMP PRT   26670000
         L     R4,LNCNT                 PICK UP LNCNT                   26680000
         LA    R4,D1(R4)                COMPENSATE FOR PRINT            26690000
         ST    R4,LNCNT                 SAVE NEW LNCNT                  26700000
CAR050   BAL   R6,PRINT                 GO GET PRINT LINE               26750000
         L     R4,LNCNT                 PICK UP LNCNT                   26800000
         SR    R4,R3                    SUBTRACT NUMBER OF SPACES       26850000
         BNH   CAR700                   EJECT IF NOT ENOUGH LINES LEFT  26900000
         ST    R4,LNCNT                 STORE REMAINING LINES + COMP    26950000
CAR100   BCT   R3,CAR200                DOES SPACE = 1                  27200000
         B     PRNXIT                   YES, EXIT                       27300000
CAR200   BCT   R3,CAR300                DOES SPACE = 2                  27400000
         MVI   CCTRL,P2SPACE            YES, SET CARRIAGE CONTROL       27500000
         B     PRNXIT                   EXIT                            27600000
CAR300   MVI   CCTRL,P3SPACE            SET CARRIAGE CONTROL = 3        27700000
         BCT   R3,CAR400                STILL MORE LINES TO SPACE       27800000
         B     PRNXIT                   NO, EXIT                        27900000
CAR400   L     R4,LNCNT                 COMP FOR PRT TO PREVENT EJECT   28000000
         LA    R4,D1(R4)                ADD 1 TO COMPENSATE FOR PRINT   28060000
         ST    R4,LNCNT                 STORE REMAINING LINES           28070000
         BAL   R6,PRINT                 PRINT SPACE 3                   28080000
         B     CAR100                   GO CHECK FOR MORE SPACES        28100000
CAR600   GOIF  TWASLC,ON=CAR700         WAS EJECT LAST OP               28200000
         BAL   R6,PRINT                 GET PRINT LINE                  28250000
         GOIF  JLNCT,LNCNT+D2,NE=CAR700 TOP OF PAGE ?                   28300000
         SET   TWASLC,ON                INDICATE BUFFER AVAILABLE       28350000
         B     PRNXIT                   SUPRESS EJECT                   28400000
CAR700   L     R2,PRNSV1                RESTORE BUFFER POINTER          28450000
         BAL   R6,PRNEJT                SET UP RETURN REGISTER          28500000
         B     PRNXIT                   RETURN                          28600000
PRNEJT   ST    R6,PRNSAVE               SAVE RETURN REGISTER            28700000
         SET   TWASLC,ON                INDICATE BUFFER AVAILABLE       28850000
         B     PRT150                   GO PRINT TITLES                 28900000
         EJECT                                                          29000000
* LISTSRC                                                               29100000
*                                                                       29200000
*   THIS ROUTINE RECONSTRUCTS THE SOURCE RECORDS IN THE PRINT AREA      29300000
*   AND CALLS PRINT TO LIST ALL CARDS BUT THE LAST IN THE STATEMENT     29400000
*   THE LAST(OR,MOST OFTEN,THE ONLY)CARD IS PRINTED AFTER PROCESSING    29500000
         SPACE                                                          29600000
LIST1    GOIF  JNOCNT,ON=LST100         DOES STATEMENT GET NUMBER       29700000
         L     R1,STMTN                 GET STATEMENT NUMBER            29800000
         BAL   R6,PRN800                GO CONVERT IT FOR LISTING       29900000
         MVC   STMTNO,DWORD2            MOVE CONVERTED NUMBER TO LIST   30000000
         SPACE                                                          30600000
LST100   SET   COLOVLP,OFF              TURN OFF OVERLAP CHECK BIT      30700000
         XC    COLSAV,COLSAV            ZEROED OUT SAVE AREA            30800000
         LH    R4,JTNMP                 GET NAME POINTER                30900000
         BAL   &BAL,FLDMOVE             MOVE NAME TO OUTPUT             31000000
         SPACE                                                          31100000