         MACRO                                                          00030000
&NAME    DICTCALL &ENTRY,&POINTER=DICTBASE                              00060000
&NAME    L     R12,&POINTER             SET UP DICT RTN ENTRY ADDR      00090000
         MVI   NDXVAL,&ENTRY            INDICATE ENTRY BEING MADE       00120000
         BALR  R9,R12                   LINK TO DICTIONARY ROUTINE      00150000
         MEND                                                           00180000
         SPACE 3                                                        00210000
         MACRO                                                          00240000
         GENOPS &OP                                                     00270000
         ORG   MOPTABLE+2*JT&OP         ORIGIN TO OP CODES SLOT IN TBL  00300000
         AIF   (K'&SYSLIST(2) EQ 0).STEP2                               00330000
         DC    Y(&SYSLIST(2)-MOPRTNS)   DUMMY ENTRY                     00360000
         MEXIT                                                          00390000
.STEP2   AIF   ('&OP'(1,1) EQ 'M').M                                    00420000
         DC    Y(M&OP-MOPRTNS)          OP CODES ENTRY IN BRANCH TABLE  00450000
         MEXIT                                                          00480000
.M       DC    Y(&OP-MOPRTNS)           OP CODE'S ENTRY IN BRANCH TABLE 00510000
         MEND                                                           00540000
         SPACE 3                                                        00570000
         MACRO                                                          00600000
         OPS   &OP                                                      00630000
         ORG   OPTAB+2*JTM&OP           ORIGIN TO OPERATOR SLOT IN TBL  00660000
         DC    Y(EVAL&OP-EVALOPS)        OPERATOR ENTRY IN BRANCH TABLE 00690000
         SPACE                                                          00720000
         MEND                                                           00750000
         EJECT                                                          00780000
         JHEAD 'XKE MACRO GENERATOR',                                  X00810000
               PHASEID=X3A,                                            X00840000
               LEVEL=10                                                 00870000
*                                                                     * 00900000
*FUNCTION/OPERATION-                                                  * 00930000
*   READS EDITED TEXT FOR MAINLINE CODE AND MACRO DEFINITIONS, WITH   * 00960000
*   THEIR DICTIONARIES, INTERPRETIVELY EXECUTES MACRO LANGUAGE PSEUDO-* 00990000
*   OPS TO PRODUCE LOGICAL SOURCE LANGUAGE FOR INPUT TO THE ASSEMBLY  * 01020000
*   PROCESS.  PERFORMS MACRO EXPANSION AND VARIABLE SYMBOL SUBSTITU-  * 01050000
*   TION.  MAPS TEXT INTO INTERNAL EVALUATION NOTATION FOR ASSEMBLY   * 01080000
*   PROCESS.  OUTPUTS TEXT AND SYMBOL RESOLUTION INFORMATION FOR ASSEM* 01110000
*   BLY PROCESSING.                                                   * 01140000
*                                                                     * 01170000
*ENTRY POINTS-                                                        * 01200000
*        MENTRY--ONLY ENTRY POINT                                     * 01230000
*                                                                     * 01260000
*INPUT-                                                               * 01290000
*        FILE1--EDITED TEXT FOR MAINLINE AND MACRO DEFINITIONS, WITH  * 01320000
*   CORRESPONDING DICTIONARIES.                                       * 01350000
*                                                                     * 01380000
*OUTPUT-                                                              * 01410000
*        FILE2--TEXT POST GENERATION                                  * 01440000
*        FILE3--SYMBOL DEFINITION AND SYMBOL REFERENCE INFORMATION    * 01470000
*                                                                     * 01500000
*EXTERNAL ROUTINES-                                                   * 01530000
*   USES ASSEMBLER SERVICES IN ROOT MODULE.                           * 01560000
*                                                                     * 01590000
*EXITS-                                                               * 01620000
*   NORMAL--JRETURN TO CONTROLLER WITH COMPLETION CODE OF X'00' IN    * 01650000
*   PARAMETER REGISTER R10.                                           * 01680000
*   ERROR--JRETURN TO CONTROLLER WITH COMPLETION CODE OF X'04' IN     * 01710000
*   PARAMETER REGISTER R10.                                           * 01740000
***********ALSO PROVIDE FOR NO TEXT AND NO SYMBOL CONDITIONS*********** 01770000
*                                                                     * 01800000
*TABLES/WORK AREAS-                                                   * 01830000
*        *********************** TO BE DOCUMENTED WHEN DEFINED********* 01860000
*                                                                     * 01890000
*        MOPTABLE--BRANCH TABLE FOR GENERATOR OPERATIONS              * 01920000
         EJECT                                                          01950000
         COPY  JCOMMON                  INCLUDES USING FOR COMMON       01980000
         EJECT                                                          02010000
         COPY  JTEXT                                                    02040000
         EJECT                                                          02070000
MTEXT    DSECT ,                        COPY OF JTEXT FOR OUTPUT        02100000
         SPACE                                                          02130000
MTRLI    DS    H                        RECORD LENGTH                   02160000
MTFLGA   DSW   MPSOP                    FLAGA PSEUDO-OP FLAG            02190000
MTFLGB   DSW   MPRONLY,                 FLAGB PRINT ONLY SWITCH        X02220000
               MERR,                    DEAD STATEMENT                 X02250000
               MNOCNT,                  DON'T COUNT                    X02280000
               MGEN,                    GENERATED                      X02310000
               MNMERR                   INVALID NAME FIELD              02340000
MTIOP    DS    0H                       OP CODE                         02370000
MTIOP1   DS    1X                       1ST BYTE                        02400000
MTIOP2   DS    X                        2ND BYTE                        02460000
MTNMP    DS    H                        NAME POINTER                    02490000
MTOCP    DS    H                        MNEMONIC POINTER                02520000
MTOPP    DS    H                        OPERAND POINTER                 02550000
MTCPR    DS    H                        COMMENTS POINTER                02580000
MTSPR    DS    H                        STRING POINTER                  02610000
MTFLGC   DS    C                        FLAG C                  OX00407 02620001
MTSYMCNT DS    C                        NUMBER OF OPERAND SYMBOLS       02640000
MTHDREND EQU   *                        END OF HEADER                   02670000
MTHDRLN  EQU   MTHDREND-MTEXT           LENGTH OF HEADER                02700000
         SPACE                                                          02730000
MTEXTA   DSECT ,                        VARIABLE PORTION--OUTPUT        02760000
         SPACE                                                          02790000
MTNMO    DSW   ,                        NAME CARD POINTER               02820000
MTNML    DS    C                        NAME LENGTH                     02850000
MTNAME   EQU   *                        NAME                            02880000
         ORG   MTNMO                    BACK TO START FOR RE-MAP        02910000
MTOCO    DSW   ,                        MNEMONIC CARD POINTER           02940000
MTOCL    DS    C                        MNEMONIC LENGTH                 02970000
MTOPCD   EQU   *                        MNEMONIC                        03000000
         ORG   MTNMO                    BACK AGAIN FOR RE-MAP           03030000
MTOPO    DSW   ,                        OPERAND CARD POINTER            03060000
MTOPL    DS    C                        OPERAND LENGTH                  03090000
MTOPND   EQU   *                        OPERAND                         03120000
         ORG   MTNMO                    BACK FOR RE-MAP                 03150000
MTCOP    DS    C                        COMMENT OUTPUT POINTER          03180000
MTCML    DS    C                        COMMENT LENGTH                  03210000
MTCMM    EQU   *                        COMMENT                         03240000
         ORG   MTNMO                    BACK AGAIN                      03270000
MTSTC    DS    C                        STRING COUNT                    03300000
MTSTO    DS    C                        STRING1 POINTER                 03330000
MTSTL    DS    C                        STRING1 LENGTH                  03360000
MTSTR    EQU   *                        STRING1                         03390000
         ORG   MTNMO                    ORG BACK FOR NEXT STRING        03420000
MTSTO2   DS    C                        STRING2 POINTER                 03450000
MTSTL2   DS    C                        STRING2 LENGTH                  03480000
MTSTR2   EQU   *                        STRING2                         03510000
         SPACE 3                                                        03540000
PARMTAB  DSECT ,                        MAP OF PARAMETER TABLE ENTRIES  03570000
         SPACE                                                          03600000
PFLAG    DSW   PSUB,                    SUB-OPERAND (ALL)              X03630000
               PSUBL,                   SUB-OPERAND (LAST)             X03660000
               PSUBF,                   SUB-OPERAND (FIRST)            X03690000
               PPASS,                   PASSED PARAMETER               X03720000
               POMIT,                   OMITTED OPERAND                X03750000
               POS,                     ORDINARY SYMBOL                X03780000
               PSDT,                    SELF-DEFINING TERM             X03810000
               PCHAR                    CHARACTER STRING                03840000
         SPACE                                                          03870000
PCS      EQU   *                        PARAMETER--CHARACTER STRING     03900000
PTAT     DS    C                        TYPE ATTRIBUTE                  03930000
PPAD     DS    4C                       PAD                             03960000
         DS    C                        DEFAULT BITS                    03970000
PKAT     DS    C                        COUNT ATTRIBUTE (LENGTH)        03990000
PSTRING  EQU   *                        STRING START                    04020000
         ORG   PCS                      RE-SET FOR NEXT MAP             04050000
*PSDT    EQU   *                        SELF DEFINING TERM              04080000
         DS    C                        TYPE ATTRIBUTE                  04110000
PVAL     DS    4C                       VALUE                           04140000
         ORG   PCS                      NEXT MAP                        04170000
*POS     EQU   *                        ORDINARY SYMBOL REFERENCE       04200000
         DS    C                        TYPE                            04230000
PLAT     DS    2C                       LENGTH ATTRIBUTE                04260000
PSAT     DS    2C                       SCALE ATTRIBUTE                 04290000
ATTRIB   DSW   TDEFALT,                 TYPE ATTRIBUTE IS DEFAULT VALUEX04296000
               LDEFALT,                 SAME FOR LENGTH                X04302000
               SDEFALT,                 SAME FOR SCALE                 X04308000
               UDEFALT                  UNDEFINED SYMBOL                04314000
         ORG   PCS                      NEXT MAP                        04320000
*POM     EQU   *                        OMITTED--SAME AS PCS            04350000
*PSUB    EQU   *                        SUBLIST HEADER                  04380000
         DS    C                        TYPE                            04410000
PLATSUB  DS    2C                       LENGTH ATTRIBUTE                04440000
PSATSUB  DS    2C                       SCALE ATTRIBUTE                 04470000
         ORG   PLATSUB                  ORIGIN TWO                      04500000
PVALSUB  DS    4C                       VALUE                           04530000
PNAT     DS    2C                       NUMBER ATTRIBUTE--COUNT OF     X04560000
                                          SUBOPERANDS                   04590000
PKATSUB  DS    2C                       TOTAL COUNT OF ALL CHARACTERS  X04620000
                                          LESS DELIMITING COMMAS AND   X04650000
                                          PARENS.                       04680000
PLIST    DS    3C                       VECTOR LIST POINTER.            04710000
         EJECT                                                          04740000
RSYMRCD  DSECT                                                          04770000
         COPY  RSYMRCD                  SYMBOL PHASE RECORD DSECT HERE  04800000
         EJECT                                                          04830000
         COPY  GENCOM                                                   04860000
GENCOMLN EQU   (GENCOM99-GENCOM+7)/8    MODULE COMMON LENGTH IN        X04890000
                                                       DOUBLE WORDS     04920000
         EJECT                                                          04950000
         COPY  JTMTXT                                                   04980000
*                                                                       05010000
*        OP CODE TABLE ENTRY MAP                                        05040000
*                                                                       05070000
         SPACE                                                          05100000
OPNTRY   DSECT                                                          05130000
OCHAIN   DS    XL2                      CHAIN POINTER                   05160000
OFLAGS   DS    X                        FLAGS                           05190000
OMNEM    EQU   *                        MNEMONIC                        05220000
         ORG   OPNTRY                   DUMMY FOR POST VARIABLE FIELD   05250000
OFLAGA   DS    X                        FLAGA                           05280000
OINTCD   DS    X                        INTERNAL OP CODE                05310000
OINTCD2  DS    X                        OP CODE BYTE 2                  05340000
OMASK    EQU   OINTCD2                  ESTENDED MNEMONIC MASK          05370000
         COPY  JERRCD                                                   05400000
ERRMESS  DSECT                                                          05430000
EMSGSVTY DS    C                        ERROR SEVERITY CODE             05460000
EMSGCODE DS    C                        ERROR NUMBER                    05490000
EMSGHL   EQU   *-EMSGSVTY               LENGTH FOR SEVERITY NUMBER      05520000
ENTRYLNG DS    C                        SNAPSHOT/DATA LENGTH            05550000
EMSGNTRY DS    CL8                      SNAPSHOT/DATA                   05580000
*                                                                       05610000
* THIS DSECT MAPS THE OPSYN TABLE ENTRY                                 05640000
*                                                                       05670000
OPSYNTRY DSECT                                                          05700000
OPSYNFLG DSW   ,,,,                     SPACE FOR OPCODE FLAGS         X05720000
               OMAC,                    OPSYN MACRO (NOT USED HERE)    X05740000
               ODEL                     DELETED                         05760000
OPSYNATT DS    XL3                      ATTRIBUTES                      05780000
ONAMEL   DS    XL1                      NAME LENGTH                     05800000
ONAME    DS    XL8                      NAME                            05820000
OPSYND   EQU   *                                                        05850000
         EJECT                                                          05880000
X3000    DSECT                                                          05910000
         SPACE 3                                                        05940000
*EQUATES TO BE USED IN SHIFT-MULTIPLY OPERATIONS                        05970000
         SPACE                                                          06000000
TIMES1   EQU   0                                                        06030000
TIMES2   EQU   1                                                        06060000
TIMES4   EQU   2                                                        06090000
TIMES8   EQU   3                                                        06120000
TIMES16  EQU   4                                                        06150000
TIMES32  EQU   5                                                        06180000
TIMES64  EQU   6                                                        06210000
TIMES128 EQU   7                                                        06240000
TIMES256 EQU   8                                                        06270000
         SPACE 3                                                        06300000
*        REGISTERS                                                      06330000
         SPACE                                                          06360000
INDEX1   EQU   R14                      SCRATCH USED AS TEMPORARY INDEX 06390000
INDEX2   EQU   R15                                                      06420000
RETURN   EQU   R9                       RETURN REGISTER AFTER LINK      06450000
SYMPTR   EQU   R11                      FIXED SYMBOL RECORD BASE        06480000
SYMPTR2  EQU   R4                       VARIABLE SYMBOL RECORD BASE     06510000
FLDPTR   EQU   R2                       MOVEABLE TEXT POINTER--LOCTR    06540000
FLDLN    EQU   R2                       LENGTH REGISTER--EVAL           06570000
RMOVE    EQU   R3                       EXECUTED MOVE REGISTER--KEEP   X06600000
                                          CLEAR.                        06630000
EVEN     EQU   R2                         EVEN--                        06660000
ODD      EQU   R3                             ODD PAIR                  06690000
RCOMP0   EQU   R0                       SCRATCH AS NEEDED               06720000
RCOMPX   EQU   R2                       NON-VOLATILE COMP REG           06750000
STACKPTR EQU   R5                       CURRENT EVAL STACK LEVEL        06780000
INPTR    EQU   R5                       JTEXT INPUT POINTER             06810000
RCOMP1   EQU   R1                       SCRATCH COMPUTATION REGISTER    06840000
RLOCTR   EQU   R6                       LOCATION COUNTER SEGMENT        06870000
VTXTPTR  EQU   R6                       VARIABLE PORTION OF TEXT        06900000
FTXTPTR  EQU   INPTR                    FIXED PORTION OF TEXT           06930000
SYMLEN   EQU   R4                       SYMBOL LENGTH                   06960000
FTXTIN   EQU   R5                                                       06990000
VTXTIN   EQU   R6                                                       07020000
FTXTOUT  EQU   R11                                                      07050000
VTXTOUT  EQU   R4                                                       07080000
HEDRPTR  EQU   FLDPTR                   PARAMETER HEADER                07110000
METAPTR  EQU   VTXTIN                   PARAMETER META TEXT             07140000
         SPACE                                                          07170000
*        LANGUAGE DEPENDENT VALUES                                      07200000
         SPACE                                                          07230000
MAXDEC   EQU   10                       MAXIMUM DIGITS CONVERTIBLE     X07260000
                                          CHARACTER TO BINARY.          07290000
MAXNAME  EQU   8                        MAXIMUM SYMBOL LENGTH           07320000
HIALPHA  EQU   JAT                      LAST ALPHABETIC CHARACTER       07350000
LOALPHA  EQU   JA                       FIRST ALPHABETIC CHARACTER      07380000
HINUM    EQU   J9                                                       07410000
LONUM    EQU   J0                                                       07440000
HIALNUM  EQU   HIALPHA                                                  07470000
LOALNUM  EQU   LONUM                                                    07500000
         SPACE                                                          07530000
*        SYSTEM TO GENERATOR TEXT FILE EQUATES                          07560000
         SPACE                                                          07590000
GTFILE   EQU   FILE2                    GENERATED TEXT FILE             07620000
PMTFILE  EQU   FILE1                    PROGRAMMER MACRO TEXT           07650000
SMTFILE  EQU   FILE1                    SYSTEM MACRO TEXT FILE          07680000
DFILE    EQU   FILE1                    DICTIONARY FILE                 07710000
SDFILE   EQU   FILE3                    SYMBOL DEFINITION FILE          07740000
SRFILE   EQU   FILE3                    SYMBOL REFERENCE FILE           07770000
         SPACE                                                          07800000
*        GENERATOR LIMITING EQUATES--MAY BE CHANGED TO INCREASE NON    X07830000
                                        LANGUAGE DEPENDENT LIMITS.      07860000
         SPACE                                                          07890000
MAXREC   EQU   256                      MAXIMUM RECORD SIZE             07920000
MAXSTRNG EQU   17                       MAXIMUM PRE-BEGIN POST-END SIZE 07950000
MAXSYM   EQU   MAXNAME                  MAXIMUM SYMBOL LENGTH           07980000
MAXCHAR  EQU   255                      MAXIMUM CHARACTER STRING        08010000
MAXGENLN EQU   298                                                      08040000
D256     EQU   256                      MAXIMUM MOVE LENGTH             08050000
         SPACE                                                          08070000
*        DICTIONARY ROUTINE ENTRY PARAMETERS                            08100000
         SPACE                                                          08130000
PHASENTR EQU   0                                                        08160000
MACRCALL EQU   2                                                        08190000
CALLEND  EQU   4                                                        08220000
MACRKWRD EQU   6                                                        08250000
MACRPOST EQU   8                                                        08280000
PROTOKWD EQU   10                                                       08310000
PROTOEND EQU   12                                                       08340000
GBLDICTR EQU   14                                                       08370000
GBLDICTS EQU   16                                                       08400000
LCLDICTR EQU   18                                                       08430000
LCLDICTS EQU   20                                                       08460000
PARMTBLR EQU   22                                                       08490000
SEQSYMBR EQU   24                                                       08520000
ORDSYMBR EQU   26                                                       08550000
MACRFINI EQU   28                                                       08580000
         EJECT                                                          08610000
         COPY  JERMSGCD                                                 08640000
         EJECT                                                          08670000
         JCSECT (X3A00)                                                 08700000
* VS1 RELEASE 3 CHANGES                                                 08710001
*A026200,192400-192867                                         @OX00407 08720005
*D192600                                                       @OX00407 08722005
* VS1 RELEASE 3.1 CHANGES                                               08724031
*A532600                                                       @YA03863 08726031
*A531100-531280                                                @OY06599 08728005
*D532600                                                       @OY06599 08728405
*D531100-531280                                                @OX09721 08728505
*A710500                                                       @OX09721 08728605
*A640000-640140                                                @AZ10934 08728700
         JMODID                                                         08730000
         SPACE 3                                                        08760000
MENTRY   JSAVE BASE=YES                                                 08790000
         SPACE                                                          08820000
         JENTRY (X3A01=MENTRY)          ENTRY POINT AS EXTERNAL NAME    08850000
         SPACE 3                                                        08880000
*        INITIALIZE THE GENERATOR                                       08910000
         SPACE                                                          08940000
MINIT    EQU   *                                                        08970000
         SPACE                                                          09000000
         SPACE                                                          09150000
*        GET CORE FOR MODULE COMMON                                     09180000
         SPACE                                                          09210000
         JGETCORE DBL=GENCOMLN                                          09240000
         SPACE                                                          09270000
         LR    R7,R10                   BASE FOR MODULE COMMON SET UP   09300000
         XC    GENCOM(GENSPEND-GENCOM),GENCOM CLEAR TO ZEROS            09330000
         SPACE                                                          09360000
*        PASS CONTROL TO DICTIONARY INITIALIZATION                      09390000
         SPACE                                                          09420000
         DICTCALL   PHASENTR                                            09450000
         SPACE                                                          09480000
*        PERMANENTLY CLEAR A REGISTER                                   09510000
         SPACE                                                          09540000
         SR    RMOVE,RMOVE              LOW BYTE ONLY TO BE USED        09570000
         SPM   RMOVE                    NO INTERRUPTS, PLEASE           09600000
         SPACE                                                          09690000
*        PREPARE EVAL WORK SPACE                                        09720000
         SPACE                                                          09750000
         LA    RCOMP1,ENDSTACK          LOCATE END OF STACK             09780000
         ST    RCOMP1,STACKEND          AND SAVE IT                     09810000
         LA    RCOMP1,STRING1           STRING BUFFER 1                 09840000
         ST    RCOMP1,STRPTR1             AND SAVE IT                   09870000
         LA    RCOMP0,STRING2           MASK FOR                        09900000
         XR    RCOMP0,RCOMP1              FLIPPING TO                   09930000
         ST    RCOMP0,STRPTR2           STRING BUFFER 2 AND BACK.       09960000
         LA    RCOMP0,ERRSTK            GET PTR TO START OF ERROR STK   09990000
         ST    RCOMP0,ESTKNDX           INITIALIZE MOVEABLE STACK PTR   10020000
         SPACE 3                                                        10050000
MINPUT   EQU   *                        INPUT SOURCE                    10080000
         SPACE                                                          10110000
         JGETL FILE=FILE1               GET NEXT INPUT TEXT RECORD      10140000
         SPACE                                                          10170000
         SPACE                                                          10950000
         LR    INPTR,R11                SET UP A BASE FOR               10980000
         USING JTEXT,INPTR                INPUT RECORD AND              11010000
         ST    INPTR,TXTIN              ALSO SAVE IT FOR LATER USE      11040000
         SR    RMOVE,RMOVE              CLEAR A REGISTER FOR LATER      11070000
         SPACE                                                          11100000
         GOIF  INMACRO,OFF=MINPUT12     NOT IN A MACRO, CONTINUE.       11130000
         SET   JGEN,ON                    ELSE INDICATE THAT THIS IS A X11160000
                                          GENERATED STATEMENT.          11190000
         SPACE                                                          11220000
MINPUT12 EQU   *                                                        11250000
         SPACE                                                          11280000
         GOIF  JPRONLY,ON=FLUSH90       ALREADY PRINT ONLY              11490000
         GOIF  INMACDEF,ON=MINPUT35     GO IF WITHIN MACRO DEFINITIONS  11550000