         MACRO                                                          00100020
&NAME    IOGENER  &GEN=                                                 00101022
* ****************** MICROFICHE FLAGS *********************** SUPT CODE 00101100
* A079500-081500                                                 S22027 00101200
* A269510-269560,274050-274450,298975-298995,356570-356920       S99228 00101300
* A363070-363420,443210-443280,656050-656400,749600-749900       S99228 00101400
* A788000-790000,786840-796960,823600-823700,902330-902450,907700S99228 00101500
* A175200,322560,322680-322920,810000-812800                     S22029 00101600
* C165800-165850,272000-272300                                   S99228 00101700
* D162000                                                        S99228 00101800
* A175200,322560,322680-322860,808560,808680-808860              S22029 00101900
* C172000-173000                                                 S22029 00102000
* D176000                                                        S22029 00102300
* A272430-273034,653946-653994,744502-744512,                    S22028 00102600
* A901020-901160,907600,933800                                   S22028 00102900
* C273035-273036,648500                                          S22028 00103200
* D298512,298520-298929                                          S22028 00103500
* A259920                                                        A44890 00103800
* C061500,259530                                                 A44890 00104100
* A759000                                                         M1582 00104400
* C061500                                                         M1582 00104700
* A818000                                                         M6293 00105000
* C061500,805700-809000                                           M6293 00105300
* A165700,219200,378500,385500,402500,450700                     S21101 00105600
* C061500,194500-197500                                          S21101 00105900
* D157500,404000                                                 S21101 00106200
* A161500                                                         M5953 00106500
* C061500                                                         M5953 00106800
* C061500,086500                                                 A41024 00107100
* A073500,096200,100500-101000,105500-106500,444000,921500       A41027 00107400
* C061500,082500,084200,085500,091000,095000,097500,099000,      A41027 00107700
* D076000,079500-081500,107000                                   A41027 00108000
* A875000,876500,934500                                          A50191 00108300
* A280700,286000,290500,460500,744980,460640,460850              A48245 00108600
* C280700,727700                                                 A48245 00108900
* D459700,779700,585700                                          A48245 00109200
* C061500,106500-106600                                          A48273 00109500
* A442001-442005,473520-473900,934550                            A48276 00109800
* D460570-460920                                                 S22026 00110100
* A092080-092400,095540-095660,143520-143880,469550-469950       S22026 00110400
* A623060-623420,907580-907900,934200,949200                     S22026 00110700
* A312900,764500                                                 S22025 00111000
* C311500,767500,769500                                          S22025 00111300
* C061500                                                        S22025 00111600
* D460500,465200,460570-460640,460850                            S22025 00111900
* A341500                                                       SA56889 00112200
* A402915                                                       SA53632 00112500
* A205500,207000                                                SA55383 00112800
* A106700                                                       SA53628 00113100
* A356500,382500                                                SA55925 00113400
* C390500                                                       SA55925 00113700
* A026000,035000,491500,919500                                  SA57685 00114000
* C872500,937500,001999                                         SA57685 00114300
* D001500-001998                                                SA57685 00114600
* C005500-006500,934550                                         SA59501 00114900
* C347000,350000                                                SA60341 00115200
* A312920                                                       SA59034 00115500
* C219420,253500-254000                                         SA59034 00115800
* A201700,202500,859500                                         SA61781 00116100
* D341600-341700                                                SA62991 00116400
* D921600                                                        X01004 00116700
* C025500,106940                                                 X01004 00117000
* A322500,383000,810800                                          X02004 00117300
* C322500,322830,323000                                          X02004 00117600
* D811000-812600                                                 X02004 00117900
* A126000,947760                                                OY00451 00118200
* C269000-273023                                                SA68050 00118500
* A901080,933800,938420,947460                                  SA68050 00120000
* A470500                                                       SA69087 00121000
* D072500,152000,156500,184000,190000,198500,242000,272360       S21903 00122000
* D298995,340500,383200,447500,498000,776000,817200,854000       S21903 00123000
* D904000,923000,925000,926500,927000,927700,930000,938500       S21903 00124000
* D943440,943580-943620                                          S21903 00125000
* A269900                                                      @YA03846 00126000
* C165800,269580,298975,356530,363070,442001,443205,473520     @YA03846 00127000
* C848530,947580                                               @YA03846 00128000
* D269200,271500,274050                                        @YA03846 00129000
* A813500                                                      @SA64363 00130000
*A356640,379500                                                @SA69649 00131000
*C352000                                                       @SA69649 00132000
*D352000-356500,394000                                         @SA69649 00133000
*A272500                                                       @SA71925 00134000
*C900000-901040,901060-901085                                  @SA71925 00135000
*A140700                                                       @YA05148 00136000
*C272120-272450                                                @SA73356 00137000
*A787000,789300                                                @SA62375 00138000
*D787900,848530                                                @SA62375 00139000
*A350180,364000                                                @SA72446 00140000
*D813600,813700                                                @SA74549 00141000
.*A099500,D379700                                              @SA74956 00142000
*D925300                                                       @YA10024 00143000
*A157000,A934700                                               @ZA04039 00144000
*D272020-272040                                                @YA05471 00145000
*C936020                                                       @YA10455 00146000
*C938480,938640                                                @YA10429 00147000
.*C876620,C876650,C876670,C876690,A876820                      @YA11011 00148000
.*A372000,927500,930500                                         X30X5MT 00149000
*A372150                                                       @OY12260 00150000
*A255500                                                       @OY12393 00151000
*C875984,A876600                                               @SA76687 00152000
*C473880                                                       @SA76694 00153000
*A379266                                                       @OY12395 00154000
*A282000,940660                                                @XA08073 00155000
*A106988,184500,377000                                         @YA12276 00156000
*C925200                                                       @YA12276 00157000
*D443235                                                       @YA12276 00158000
*D255700                                                       @OX13501 00159000
*D165803-165806,165850,A165900,C350228                         @OX12562 00160000
*D219420-219440,A222000                                        @OS77414 00161000
*D934550                                                       @OY14057 00162000
*A797800                                                       @OS77835 00163000
*C282210,C282270                                               @OX14772 00164000
*C282210,C82270,A897501,A938321,A940641                        @OX14790 00165000
*A276950,277150,C276955                                        @OZ14183 00166000
*A372110,372420,479500,480500,930500                           @OS77867 00167000
.*C194000,199000,385500                                        @OY14092 00168000
.*D380070-380460,431500-432000                                 @OY14092 00187200
.*C078000,102000,372380,797800                                 @G36XRYP 00192200
*C272120-272450                                                @OZ09276 00193200
*A934800                                                       @OZ09276 00194200
*A372465,A930700                                               @OX16705 00195200
*A277210                                                       @OS79864 00195800
*A272270                                                       @OZ26670 00196400
*C290750-290800,A940642,D940680,C937700,A938322,C938360        @OZ28818 00196586
*A897500,D898500                                               @OZ28818 00196786
.********************************************************************** 00197200
IEDQKA01 CSECT                                                          00207200
&NAME    EQU   *                                                        00217200
         ENTRY &NAME                                                    00300020
         TITLE 'ACTIVATE (&NAME)- I/O GENERATOR SUBROUTINE (IEDQKA02)'  00350020
*                                                                     * 00400020
*********************************************************************** 00450020
*                                                                     * 00500020
*  TITLE:  ACTIVATE AND I/O GENERATOR SUBROUTINE ( IOGENER )          * 00550054
*                                                                     * 00556022
         AIF   ('&GEN' NE 'MINI').TAG1                          SA59501 00562022
*  MODULE NAME = IEDQKD (MINI)                                        * 00568022
         AGO   .TAG5                                            SA59501 00574022
.TAG1    AIF   ('&GEN' NE 'STSP').TAG2                          SA59501 00580022
*  MODULE NAME = IEDQKC (STSP)                                        * 00586022
         AGO   .TAG5                                            SA59501 00592022
.TAG2    AIF   ('&GEN' NE 'BISC').TAG3                          SA59501 00598022
*  MODULE NAME = IEDQKB (BISC)                                        * 00604022
         AGO   .TAG5                                            SA59501 00610022
.TAG3    AIF   ('&GEN' NE 'QTAM').TAG4                          SA59501 00616022
*  MODULE NAME = IEDQKE (QTAM)                                        * 00622022
         AGO   .TAG5                                            SA59501 00628022
.TAG4    ANOP                                                   SA59501 00634022
*  MODULE NAME = IEDQKA (BOTH)(BLANK)                                 * 00640022
.TAG5    ANOP                                                   SA59501 00646022
*                                                                     * 00652022
*  DESCRIPTIVE NAME = ACTIVATE AND I/O GENERATOR ROUTINE              * 00658022
*                                                                     * 00664022
*  COPYRIGHT = 'NONE'                                                 * 00670022
*                                                                     * 00676022
*  STATUS:  CHANGE LEVEL 5                                            * 00682051
*                                                                     * 00700020
*FUNCTION -- THE FUNCTION OF THIS MODULE IS TO CONSTRUCT CHANNEL      * 00750020
*   PROGRAMS FOR INITIAL CONTACT, CONTINUE, AND RESET SEQUENCES.      * 00800020
*                                                                     * 00850020
*ENTRY POINTS --                                                      * 00900020
*   ACTIVATE                                                          * 00950020
*        CALLING SEQUENCE                                             * 01000020
*        L     R15,ADDR OF ACTIVATE                                   * 01050020
*        BR    R15                                                    * 01100020
*                                                                     * 01150020
*   I/O GENERATOR SUBROUTINE                                          * 01200020
*        L     12,ADDR OF I/O GENERATOR SUBROUTINE                    * 01250020
*        BALR  5,12                                                   * 01300020
*                                                                     * 01350020
*INPUT -- REGISTERS SET BY CALLER                                     * 01400020
*   FOR 'ACTIVATE' --                                                 * 01450020
*   R1  ADDR OF ERB OR BUFFER                                         * 01500020
*   R13 ADDR OF AVTSAVE2                                              * 01550020
*                                                                     * 01600020
*   FOR 'I/O GENERATOR' --                                            * 01650020
*   R13 ADDR OF AVTSAVE2                                              * 01700020
*   R2  LCB ADDRESS                                                   * 01750020
*   R5  RETURN ADDRESS                                                * 01800020
*                                                                     * 01850020
*OUTPUT -- REGISTERS AT EXIT                                          * 01900020
*   FOR 'ACTIVATE' --                                                 * 01950020
*   R11 DISPATCHER BASE                                               * 02000020
*   R13 ADDR OF AVTSAVE2                                              * 02050020
*                                                                     * 02100020
*   FOR 'I/O GENERATOR SUBROUTINE' --                                 * 02150020
*   R5  RETURN ADDRESS                                                * 02200020
*   R13 ADDR OF AVTSAVE2                                              * 02250020
*                                                                     * 02300020
*EXTERNAL ROUTINES --                                                 * 02350020
*   'IEDQTNT'-- USED TO CONVERT TWO BYTE TNT OFFSET TO TERMIANL       * 02400020
*   TABLE ENTRY ADDRESS.                                              * 02450020
*                                                                     * 02500020
*   SVC 114 -- EXCPVR (AOS)                                           * 02550005
*   SVC 35--WTO                                                SA57685* 02600022
*EXITS-NORMAL --                                                      * 02650020
*   'ACTIVATE' - RETURNS TO DISPATCHER TO DISPATCH NEXT READY STCB OR * 02700020
*   TO POST A CHAIN OF BUFFERS TO MH.                                 * 02750020
*                                                                     * 02800020
*   'I/O GENERATOR SUBROUTINE' - RETURNS TO CALLER                    * 02850020
*                                                                     * 02900020
*EXITS-ERROR -- NONE                                                  * 02950020
*                                                                     * 03000020
*TABLES/WORK AREAS -- DSECTS OF CONTROL BLOCKS AS EXPANDED BY MACROS  * 03050020
*        DCBD  DSORG=TX                                                 03100022
*        TAVTD                                                          03110022
*        TCCWD                                                          03120022
*        TDEBD                                                          03130022
*        TDISPD                                                         03140022
*        TLCBD                                                          03150022
*        TPRFD                                                          03160022
*        TPRIOR                                                         03170022
*        TQCBD                                                          03180022
*        TQCBED                                                         03190022
*        TSCBD                                                          03200022
*        TSTCBD                                                         03210022
*        TTSID                                                          03220022
*        TTNTD                                                          03230022
*        TTPD                                                           03240022
*        TTRMD                                                          03250022
*                                                                     * 03550020
*ATTRIBUTES                                                           * 03600020
*   'ACTIVATE' -- REUSABLE,REFRESHABLE                                * 03650020
*                                                                     * 03700020
*   'I/O GENERATOR SUBROUTINE' - RE-ENTRANT,REFRESHABLE - WHEN        * 03750020
*                                ENTERED FROM ACTIVATE.               * 03800020
*   PROBLEM PROGRAM MODE, ENABLED.  WHEN ENTERED FROM IGG019R0        * 03850020
*   -SUPERVISOR MODE, DISABLED.                                       * 03900020
*                                                                     * 03950020
*NOTES -- THE OPERATION OF THIS MODULE DOES NOT DEPEND UPON A         * 04000020
*   PARTICUALR INTERNAL REPRESENTATION OF THE EXTERNAL CHARACTER      * 04050020
*   SET.                                                              * 04100020
*                                                                     * 04150020
* CHANGE ACTIVITY =                                            @Y16X5I0 04160000
*A-000000-999999                                               @Y16X5I0 04170000
*C147500                                                       @Y17XAII 04175000
*                                                              @Y16X5I0 04180000
*D184580-184900,377080-377400                                  @Y17XAIZ 04190000
*********************************************************************** 04200020
         EJECT                                                          04250020
         ENTRY IEDQKA02                                                 04350020
         DC    AL1(DSPMCPL2)            STCB OFFSET                     04400020
         DC    AL1(0)                                                   04450020
*    ACTIVATE IS ENTERED HERE WHEN GIVEN CONTROL BY THE DISPATCHER.   * 04500020
*                                                                       04550020
ACTIVATE EQU   *                        ENTRY PT FROM DISPATCHER        04600020
         SPACE 3                                                        04650020
         USING *,15                     LINK REGISTER                   04700022
         USING IHADCB,RDCB              DCB REGISTER                    04740022
         USING IEDQTRM,RTERM            TERM ENTRY REGISTER             04780022
         USING AVTSAVE2,RAVT            AVT SAVE REGISTER               04820022
         USING IEDQLCB,RLCB             LCB REGISTER                    04860022
         USING IEDQLCBX,RWKC            LCB EXTENSION ADDR       S99228 04920022
         USING IEDQCCW,RCCW             CCW REGISTER                    04950022
         USING IEDQDISP,RSUPBASE        DISPATCHER BASE                 04980022
         SPACE 3                                                        05010022
* REGISTER DEFINITIONS                                                  05050020
R0       EQU   0                        MODULE WORK REG                 05100022
RPARM    EQU   1                        PARAMETER REG                   05110022
RLCB     EQU   2                        LCB BASE                        05200020
RTPCDE   EQU   3                        PTS TO CURR TP FIELD IN LCB     05250020
RDCB     EQU   4                        DCB BASE                        05300020
R2       EQU   5                        WORK REGISTER                   05350020
RWKA     EQU   6                        WORK REG                        05400020
RWKB     EQU   7                        WORK REG                        05450020
RTERM    EQU   8                        TERM ENTRY BASE                 05500020
RWKC     EQU   9                        WORK REGISTER                   05550020
RCCW     EQU   10                       CCW BASE                        05600020
RSUPBASE EQU   11                       DISPATCHER BASE                 05650020
RMOD     EQU   11                       PTS TO MODEL CCW'S              05700020
RBASE    EQU   12                       BASE ADDRESS FOR I/O GENERATOR  05750020
RAVT     EQU   13                       AVT BASE ADDRESS                05800022
REXPND   EQU   14                       LINK REG FOR EXPAND ROUTINE     05850020
RLNK1    EQU   15                       WORK REG                        05900022
         EJECT                                                          05950020
         STM   11,15,12(13)             SAVE REQUIRED REGISTERS         06000020
&NAME    IEDHJN ID                                               S22025 06050022
         LR    RLCB,RPARM               ERB ADDRESS                     06250020
         TM    PRFTIC-IEDQPRF(RPARM),CCWTIC ERB OR BUFFER               06300020
         BZ    ITSERB                   BRANCH IF ERB                   06350020
         L     RLCB,PRFLCB-1-IEDQPRF(RPARM) SET LCB BASE                06400020
         B     ITSLCB                   CONTINUE                        06450020
ITSERB   EQU   *                                                        06500020
         SH    RLCB,LCBBKUP             BACK UP TO LCB                  06550020
ITSLCB   EQU   *                                                        06600020
         L     RDCB,LCBDCBPT            DCB BASE                        06650020
         AIF   ('&GEN' EQ 'BISC').L6                                    06700020
         AIF   ('&GEN' EQ 'MINI').L6                                    06750020
         AIF   ('&GEN' EQ 'QTAM').L6                                    06770020
         TM    LCBTSOB,LCBTSBUF         IS THIS A TS BUFFER?        TSO 06800020
         BZ    TSO1                     BRANCH ON NO                TSO 06850020
         L     RWKA,AVTTSOPT            GET ADDRESS OF TS SCHED     TSO 06900020
         L     RWKA,TSISCHED-IEDQTSI(,RWKA)                         TSO 06950020
         BAL   RTPCDE,24(RWKA)          BRANCH TO ROUTINE           TSO 07000020
TSO1     EQU   *                                                    TSO 07050020
.L6      ANOP                                                           07100020
         LA    RBASE,BUILD              IOGEN SUBROUTINE            TSO 07150020
         BALR  R2,RBASE                 LINK TO IO GEN                  07200020
         LM    11,15,12(13)             RESTORE REGISTERS               07300020
         MVC   LCBTTCIN,LCBTTBIN        TO BE CONNECTED IS NOW CON-     07350020
         SPACE 2                                                 A41027 07360020
         L     RWKB,DCBMH-1 .           GET MH -CB ADDRESS FOR POA41027 07370020
         SR    RWKC,RWKC .              CLEAR POST LIST FOR FINALA41027 07380020
*                                         EXIT TO DISPATCHER     A41027 07390020
         SPACE 2                                                 A41027 07392020
*        UNIT EXCEPTION BIT WILL BE SET WHEN AA CONTINUE OR ABORTA41027 07394020
* SEQUENCE CAN NOT BE SENT (EX. 1030, 2260L, ETC.)               A41027 07396020
         TM    LCBCSW+3,UNEX            NO RESTART ON CONTINUE          07400020
*                                         REQUEST                       07450020
         BZ    NOTUNEX                  BRANCH NO                       07500020
         SPACE                                                          07550020
         L     RPARM,LCBLSPCI-1         BUFFER TO POST                  07650020
         MVI   PRFPRI-IEDQPRF(RPARM),PRIMHBFR POST PRIORITY             07700020
         NI    PRFSTAT1-IEDQPRF(RPARM),PRFNLSTF 'LAST BUFFWR'           07750020
         STCM  RWKB,7,PRFQCBA-IEDQPRF(RPARM) SET POST ADDRESS  @G36XRYP 07800000
         BAL   REXPND,DSPPOST           POST BUFFER TO MH      @Y17XAIX 07850000
NOTUNEX  EQU   *                                                        07900020
         AIF   ('&GEN' EQ 'STSP').Z0 .                           S22027 07950022
         AIF   ('&GEN' EQ 'MINI' OR '&GEN' EQ 'QTAM').Z0 .       S22027 08000022
         TM    LCBSTICS+1,CBRDCAST .    BROADCAST MESSAGES       S22027 08050022
         BO    EXITDSP .                BRANCH IF YES            S22027 08100022
.Z0      ANOP                                                    S22027 08150022
         TM    LCBSTAT2,LCBMSGNN        MSG GEN                         08200020
         BO    EXITDSP .                BRANCH YES               A41027 08250020
         SPACE 2                                                 A41027 08260020
         TM    LCBSTAT1,LCBRECVN        RECEIVE STATE                   08400020
         AIF   ('&GEN' NE 'MINI').Z1                                    08410020
         BO    EXITDSP .                YES                      A41027 08420020
         AGO   .Z2                                                      08430020
.Z1      ANOP                                                           08440020
         BZ    NOTRCV                   NO                              08450020
         CLI   LCBCPA+24,CCWPOLL        AUTOPOLL IN USE                 08500020
         BNE   EXITDSP .                NO                       A41027 08550020
         SPACE                                                          08600020
*        WANT TO OPEN LIST FOR SEND STCB OR POLL DELAY           A41024 08650020
         CLI   DCBINTVL,AVTEZERO .      POLL DELAY  SPECIFIED    A41024 08660020
         BNE   ITSHERE .                BRANCH IF YES            A41024 08670020
         LA    RWKA,LCBSTCBA-5          RECEIVE STCB -4                 08700020
         CLI   LCBRSKEY,BUFFVTO         BUFFERED LCB                    08750020
         BNE   LOOPPOLL                 BRANCH IF NO                    08800020
         SPACE                                                          08850020
         LA    RWKA,LCBRSKEY            ADJUST FOR LOOP CONTROL         08900020
LOOPPOLL EQU   *                                                        08950020
         L     RWKA,STCBLINK-1-IEDQSTCB(RWKA) NEXT STCB IN CHAIN        09000020
         CLI   STCBPRI-IEDQSTCB(RWKA),0 LAST STCB (QEVENT)              09050020
         BE    EXITDSP .                YES                      A41027 09100020
         CLI   STCBVTO-IEDQSTCB(RWKA),SENDVTO SEND STCB                 09150020
         BE    ITSHERE                  YES                             09200020
         AIF   ('&GEN' EQ 'MINI').CONC1A .                       S22026 09208022
         CLI   STCBVTO-IEDQSTCB(RWKA),CSVTO .                    S22026 09216022
*                                       CONC SCHEDULER           S22026 09224022
         BE    ITSHERE .                BRANCH IF YES            S22026 09232022
.CONC1A  ANOP .                                                  S22026 09240022
         CLI   STCBVTO-IEDQSTCB(RWKA),BUFFVTO BUFFERED SEND STCB        09250020
         BNE   LOOPPOLL                 NO TRY NEXT STCB                09300020
         SPACE                                                          09350020
ITSHERE  EQU   *                                                        09400020
         MVI   LCBCPA+32,CCWNOP         NOP FIRST TIC                   09450020
         B     EXITDSP .                EXIT                     A41027 09500020
         SPACE 2                                                 A41027 09510020
NOTRCV   EQU   *                                                        09550020
.Z2      ANOP                                                           09570020
*                                                                A41027 09580020
*        FOR DEVICES THAT ARE NOT SELECTED BUFFERS ARE POSTED NOWA41027 09590020
         SPACE                                                          09600020