         MACRO                                                          07000000
&NAME    JCALL &ROUTINE,&BASE=YES                                       14000000
.*                                                                      14050000
.*        GENERATES A BRANCH AND LINK TO A SUBROUTINE.                  14100000
.*                                                                      14150000
         AIF   ('&BASE' EQ 'YES').BASEYES                               21000000
         AIF   ('&BASE' EQ 'NO').BASENO                                 28000000
         MNOTE 8,'INVALID PARAMETER'                                    35000000
         MEXIT                                                          42000000
.BASEYES ANOP                                                           49000000
&NAME    L     R12,=A(&ROUTINE)                                         56000000
         BALR  R9,R12                                                   63000000
         MEXIT                                                          70000000
.BASENO  ANOP                                                           77000000
&NAME    BAL   R9,&ROUTINE                                              84000000
         MEND                                                           91000000
