         MACRO                                                          09000000
&NAME    JCHECK &FILE=                                                  18000000
.*                                                                      18050000
.*       GENERATES A CALL TO WORKFILE I/O MODULE CHECK ROUTINE          18100000
.*       TO ISSUE A CHECK FOR A STARTED I/O OPERATION.                  18150000
.*                                                                      18200000
         AIF   (K'&FILE EQ 0).ERR1                                      27000000
&NAME    JINST LA,R10,&FILE,FILE                                        36000000
         L     R12,JMLC                 LOAD BASE                       45000000
         BAL   R9,JCHECK(,R12)          GO TO JCHECK                    54000000
         MEXIT                                                          63000000
.ERR1    MNOTE 8,'PARAMETER ERROR.'                                     72000000
         MEND                                                           81000000
