         MACRO                                                          09000000
&NAME    JFIND &ADDR=                                                   18000000
.*       GENERATES A CALL TO THE FIND ROUTINE IN THE I/O MODULE         18050000
.*       TO ISSUE A FIND FOR A MACRO OR COPY CODE MEMBER.               18100000
         AIF   (K'&ADDR EQ 0).ERR1                                      27000000
&NAME    JINST LA,R10,&ADDR                                             36000000
         L     R12,JINMLC               LOAD BASE                       45000000
         BAL   R9,JFIND(,R12)           GO TO JFIND                     54000000
         MEXIT                                                          63000000
.ERR1    MNOTE 8,'PARAMETER ERROR.'                                     72000000
         MEND                                                           81000000
