         MACRO                                                          09000000
&NAME    JFRECORE &ADDR=                                                18000000
.*       GENERATES A CALL TO THE I/O INTERFACE MODULES TO FREE          18050000
.*       A BLOCK OF DOUBLE WORD STORRAGE.                               18100000
         AIF   (K'&ADDR EQ 0).ERR1                                      27000000
&NAME    JINST L,R10,&ADDR                                              36000000
         L     R12,JMLC                 LOAD BASE                       45000000
         BAL   R9,JFRECORE(,R12)        GO TO JFRECORE                  54000000
         MEXIT                                                          63000000
.ERR1    MNOTE 8,'PARAMETER ERROR.'                                     72000000
         MEND                                                           81000000
