         MACRO                                                          04000000
&NAME    JGEN  &NM,&TYPE,&DATA,&LEN                                     08000000
         LCLA  &END,&I                                                  12000000
         LCLC  &C(2),&L                                                 16000000
.*       GENERATES AN ORG TO SPECIFIED ADDRESS                          16050000
.*       AND A DC OF SPECIFIED TYPE AND VALUE.                          16100000
         ORG   START+&NM-JCOMMON                                        20000000
&C(1)    SETC  '('                                                      24000000
&C(2)    SETC  ')'                                                      28000000
         AIF   ('&TYPE' EQ 'A' OR '&TYPE' EQ 'Q' OR '&TYPE' EQ 'V' OR  X32000000
               '&TYPE' EQ 'S' OR '&TYPE' EQ 'Y').NXA                    36000000
&C(1)    SETC  ''''                                                     40000000
&C(2)    SETC  ''''                                                     44000000
.NXA     AIF   (K'&LEN EQ 0).NXB                                        48000000
&L       SETC  'L'.'&LEN'                                               52000000
.NXB     AIF   (K'&NAME EQ 0).NXC                                       56000000
&NAME    DS    0&TYPE&L                                                 60000000
.NXC     ANOP                                                           64000000
&I       SETA  1                                                        68000000
&END     SETA  N'&DATA                                                  72000000
.NXD     DC    &TYPE&L&C(1)&DATA(&I)&C(2)                               76000000
&I       SETA  &I+1                                                     80000000
         AIF   (&I LE &END).NXD                                         84000000
.NXE     MEND                                                           88000000
