         MACRO                                                          09000000
&NAME    JGETL &FILE=                                                   18000000
.*       GENERATES A CALL TO TEH WORKFILE I/O MODULE TO GET THE ADDRESS 18050000
.*       OF THE NEXT LOGICAL RECORD.                                    18100000
         AIF   (K'&FILE EQ 0).ERR1                                      27000000
&NAME    JINST LA,R10,&FILE,FILE                                        36000000
         L     R12,JMLC                 LOAD BASE                       45000000
         BAL   R9,JGETL(,R12)           GO TO JGETL                     54000000
         MEXIT                                                          63000000
.ERR1    MNOTE 8,'PARAMETER ERROR.'                                     72000000
         MEND                                                           81000000
