         MACRO                                                          04000000
&NAME    JGETCORE &MINDBL=,&MAXDBL=,&DBL=                               08000000
         LCLA  &AA,&BB                                                  12000000
         LCLB  &A,&B                                                    16000000
.*       GENERATES A CALL TO THE I/O INTERFACE MODULES TO GET           16010000
.*       A VARIABLE NUMBER OF DOUBLE WORD STORAGE.                      16050000
&A       SETB  (K'&MINDBL EQ 0 AND K'&MAXDBL EQ 0)                      20000000
&B       SETB  (K'&DBL EQ 0)                                            24000000
&AA      SETA  &A                                                       28000000
&BB      SETA  &B                                                       32000000
         AIF   (&AA EQ &BB).ERR1                                        36000000
         AIF   (K'&DBL EQ 0).NXA                                        40000000
&NAME    JINST LA,R10,&DBL                                              44000000
         LR    R11,R10                                                  48000000
         AGO   .NXB                                                     52000000
.NXA     ANOP                                                           56000000
&NAME    JINST LA,R10,&MINDBL                                           60000000
         JINST LA,R11,&MAXDBL                                           64000000
.NXB     L     R12,JMLC                 LOAD BASE                       68000000
         BAL   R9,JGETCORE(,R12)        GO TO JGETCORE                  72000000
         MEXIT                                                          76000000
.ERR1    MNOTE 8,'PARAMETER ERROR.'                                     80000000
         MEND                                                           84000000
