         MACRO                                                          10000000
&NAME    JMODID                                                         20000000
         GBLA  &SNUMBER,&ASMLEV                                         30000000
         GBLC  &ASMID,&COMPNM                                           40000000
.*       GENERATES EMBEDDED IDENTIFIER CONSISTING OF SIX CARACTER       40050000
.*       MODULE NAME AND A HALF WORD BINARY ASSEMBLER LEVEL.            40100000
&NAME    DC    CL6'&COMPNM&ASMID',HL2'&ASMLEV'                          50000000
         MEND                                                           60000000
