         MACRO                                                          10000000
&NAME    JNOTELB                                                        20000000
.*       GENERATES A CALL TO THE INPUT I/O MODULE TO NOTE               20050000
.*       THE POSITION IN LIBRARY.                                       20100000
&NAME    L     R12,JINMLC               LOAD BASE                       30000000
         BAL   R9,JNOTELB(,R12)         GO TO JNOTELB                   40000000
         MEND                                                           50000000
