         MACRO                                                          05000000
&NAME    JPOINT &FILE=,&ADDR=,&NEXT=                                    10000000
         LCLC  &XXX                                                     15000000
         LCLA  &I                                                       15600000
.*       GENERATES A CALL TO THE WORKFILE I/O MODULE TO POSITION        15650000
.*       THE FILE TO A SPECIFIED POSITION                               15700000
         AIF   (K'&NEXT LT 4).IN1                                       16200000
&I       SETA  4                                                        16800000
         AGO   .IN2                                                     17400000
.IN1     ANOP                                                           18000000
&I       SETA  K'&NEXT                                                  18600000
.IN2     ANOP                                                           19200000
         AIF   (K'&FILE EQ 0 OR K'&ADDR EQ 0 AND                       X20000000
               '&NEXT' NE 'START').ERR1                                 25000000
         AIF   ('&NEXT' NE 'READ' AND '&NEXT' NE 'WRITE' AND           X30000000
               '&NEXT' NE 'GET' AND '&NEXT' NE 'PUT' AND               X35000000
               '&NEXT' NE 'START').ERR1                                 40000000
&XXX     SETC  '&NEXT'(1,&I)                                            45000000
&NAME    SET   JPT4&XXX,ON                                              50000000
         JINST LA,R10,&FILE,FILE                                        55000000
         AIF   ('&NEXT' EQ 'START').NXA                                 60000000
         JINST LA,R11,&ADDR                                             65000000
.NXA     L     R12,JMLC                 LOAD BASE                       70000000
         BAL   R9,JPOINT(,R12)          GO TO JPOINT                    75000000
         MEXIT                                                          80000000
.ERR1    MNOTE 8,'PARAMETER ERROR.'                                     85000000
         MEND                                                           90000000
