         MACRO                                                          09000000
&NAME    JPOINTLB &ADDR=                                                18000000
.*       GENERATES A CALL TO THE INPUT I/O MODULE TO POSITION           18050000
.*       THE LIBRARY FILE TO GET THE RECORD AFTER THE ONE NOTED.        18100000
         AIF   (K'&ADDR EQ 0).ERR1                                      27000000
&NAME    JINST LA,R10,&ADDR                                             36000000
         L     R12,JINMLC               LOAD BASE                       45000000
         BAL   R9,JPOINTLB(,R12)        GO TO JPOINTLB                  54000000
         MEXIT                                                          63000000
.ERR1    MNOTE 8,'PARAMETER ERROR.'                                     72000000
         MEND                                                           81000000
