         MACRO                                                          10000000
&NAME    JPRINT                                                         20000000
.*       GENERATES A CALL TO THE OUTPUT I/O MODULE TO PRINT A LINE      20050000
.*       ON SYSPRINT AND GET THE ADDRESS OF THE NEXT BUFFER BACK.       20100000
&NAME    L     R12,JOUTMLC              LOAD BASE                       30000000
         BAL   R9,JPRINT(,R12)          GO TO JPRINT                    40000000
         MEND                                                           50000000
