         MACRO                                                          09000000
&NAME    JPUNCH &SEQ=YES                                                18000000
.*       GENERATES A CALL TO THE OUTPUT I/O MODULE TO OUTPUT            18050000
.*       A 80-BYTE RECORD ON SYSPUNCH AND SYSGO AND GET THE ADDRESS     18100000
.*       OF THE NEXT BUFFER BACK.                                       18150000
         AIF   ('&SEQ' EQ 'YES').NXA                                    27000000
&NAME    SET   JNOSEQPH,ON                                              36000000
         L     R12,JOUTMLC              LOAD BASE                       45000000
         AGO   .NXB                                                     54000000
.NXA     ANOP                                                           63000000
&NAME    L     R12,JOUTMLC              LOAD BASE                       72000000
.NXB     BAL   R9,JPUNCH(,R12)          GO TO JPUNCH                    81000000
         MEND                                                           90000000
