         MACRO                                                          09000000
&NAME    JPUTM &FILE=,&ADDR=                                            18000000
.*       GENERATES A CALL TO THE WORKFILE I/O MODULE TO COPY A RECORD   18050000
.*       INTO THE OUTPUT BUFFER.                                        18100000
         AIF   (K'&FILE EQ 0 OR K'&ADDR EQ 0).ERR1                      27000000
&NAME    JINST LA,R10,&FILE,FILE                                        36000000
         JINST LA,R11,&ADDR                                             45000000
         L     R12,JMLC                 LOAD BASE                       54000000
         BAL   R9,JPUTM(,R12)           GO TO JPUTL                     63000000
         MEXIT                                                          72000000
.ERR1    MNOTE 8,'PARAMETER ERROR.'                                     81000000
         MEND                                                           90000000
