         MACRO                                                          09000000
&NAME    JPUTL &FILE=,&BUFREQ=                                          18000000
.*       GENERATES A CALL TO THE WORKFILE I/O MODULE TO GET THE ADDRESS 18050000
.*       OF THE NEXT RECORD IN THE BUFFER. WHEN END OF BUFFER           18100000
.*       IS REACHED THE WHOLE BUFFER IS PUT ON FILE.                    18150000
         AIF   (K'&FILE EQ 0 OR K'&BUFREQ EQ 0).ERR1                    27000000
&NAME    JINST LA,R10,&FILE,FILE                                        36000000
         JINST LA,R11,&BUFREQ                                           45000000
         L     R12,JMLC                 LOAD BASE                       54000000
         BAL   R9,JPUTL(,R12)           GO TO JPUTL                     63000000
         MEXIT                                                          72000000
.ERR1    MNOTE 8,'PARAMETER ERROR.'                                     81000000
         MEND                                                           90000000
