         MACRO                                                          09000000
&NAME    JREAD &FILE=,&PARM=                                            18000000
.*       GENERATES A CALL TO THE WORKFILE I/O MODULE TO READ            18050000
.*       A PHYSICAL RECORD. A JCHECK MACRO CALL MUST BE ISSUED          18100000
.*       BEFORE ANY ADDITIONAL OPERATIONS TO THE WORKFILE ARE DONE.     18150000
         AIF   (K'&FILE EQ 0 OR K'&PARM EQ 0).ERR1                      27000000
&NAME    JINST LA,R10,&FILE,FILE                                        36000000
         JINST LA,R11,&PARM                                             45000000
         L     R12,JMLC                 LOAD BASE                       54000000
         BAL   R9,JREAD(,R12)           GO TO JREAD                     63000000
         MEXIT                                                          72000000
.ERR1    MNOTE 8,'PARAMETER ERROR.'                                     81000000
         MEND                                                           90000000
