         MACRO                                                          09000000
&NAME    JRELSE &FILE=                                                  18000000
.*       GENERATES A CALL TO THE WORKFILE I/O MODULE TO RELEASE         18050000
.*       AN INPUT BUFFER. THE NEXT JGETL MACRO INTRUCTION RETRIEVES     18100000
.*       THE FIRST RECORD IN THE NEXT INPUT BUFFER.                     18150000
         AIF   (K'&FILE EQ 0).ERR1                                      27000000
&NAME    JINST LA,R10,&FILE,FILE                                        36000000
         L     R12,JMLC                 LOAD BASE                       45000000
         BAL   R9,JRELSE(,R12)          GO TO JRELSE                    54000000
         MEXIT                                                          63000000
.ERR1    MNOTE 8,'PARAMETER ERROR.'                                     72000000
         MEND                                                           81000000
