         MACRO                                                          10000000
&NAME    JTPRINT                                                        20000000
.*       GENERATES A CALL TO THE OUTPUT I/O MODULE TO OUTPUT A RECORD   20050000
.*       ON SYSTERM DATA SET.                                           20100000
&NAME    L    R12,JOUTMLC               GET OUTPUT PACKAGE ENTRY        30000000
         BAL   R9,TSPRINT(,R12)         GO TO TSO PRINT                 40000000
         MEND                                                           50000000
