         MACRO                                                          09000000
&NAME    JWRITE &FILE=,&PARM=                                           18000000
.*       GENERATES A CALL TO THE WORKFILE I/O PACKAGE TO WRITE          18050000
.*       A PHYSICAL RECORD. THE OPERATIN MUST BE CHECKED FOR COMPLETION 18100000
.*       BEFORE ANY ADDITIONAL OPERATIONS TO THE FILE IS DONE (JCHECK). 18150000
         AIF   (K'&FILE EQ 0 OR K'&PARM EQ 0).ERR1                      27000000
&NAME    JINST LA,R10,&FILE,FILE                                        36000000
         JINST LA,R11,&PARM                                             45000000
         L     R12,JMLC                 LOAD BASE                       54000000
         BAL   R9,JWRITE(,R12)          GO TO JWRITE                    63000000
         MEXIT                                                          72000000
.ERR1    MNOTE 8,'PARAMETER ERROR.'                                     81000000
         MEND                                                           90000000
