         MACRO                                                          00020022
&NAME    LINEEND  &GEN=                                                 00022022
.*CHANGE ACTIVITY= AS FOLLOWS:                                   S21903 00024022
.*A104830-104950,107200-107330,312650                            S22027 00025022
.*A027410-027500,117820-118160,155420-155520,189010-189160       S99228 00025122
.*A199020-199140,297410-297580,298400-299400,334840-334960       S99228 00025222
.*A411810,411900                                                 S99228 00025322
.*C127600-128000                                                 S99228 00025422
.*C330000-330400,429800-429980,700000-702160,719400-719580       S99228 00025522
.*A302610-302700,351620-351740,489610-489700,291210-591320       S22029 00025622
.*C411300,657400,683800-684600                                   S22029 00025722
.*A052650-052750,058610-058720,073230-073350                     S22028 00025822
.*A481000                                                        A42376 00025922
.*C030400,461600,481600-482600,484600                            A42376 00026022
.*A589000                                                         M6293 00026122
.*C030400                                                         M6293 00026222
.*A057800,164600,167800,250600,260800,275400,280000,280900       S21101 00026322
.*A350600,393800,505600,549200,653000,657400                     S21101 00026422
.*C030400,106800,129600-134400,141400-141600,151400              S21101 00026522
.*C162600-162800,166200-166400,184600-184800,204200,204800       S21101 00026622
.*C205200-205600,218800,238200-238800,288000,341600,355400       S21101 00026722
.*C368200-368600,398400-398800,399600,400400,432600              S21101 00026822
.*C489800-490200,490400-491400,492000,505400,508800              S21101 00026922
.*C524000-525000,529000-530200,603600,651200,653800-654600       S21101 00027022
.*C716600                                                        S21101 00027122
.*A040000,420600                                                  M5953 00027422
.*C030400,040000                                                  M5953 00027522
.*C030400,216400                                                SA51068 00027622
.*A310000,430000                                                SA44892 00027722
.*C030400,489800-501200,512600-517400                           SA44892 00027822
.*A283000,598400                                                SA44983 00027922
.*C599000-601600                                                SA44983 00028022
.*C030400,645200                                                SA44894 00028122
.*A238200,454200,581800,669200,671000,671400,671800,674400       S22025 00028222
.*A676200,685000,686000,689800,690600,691200                     S22025 00028322
.*C029200,055000-055200,129200-134800,242800-246000              S22025 00028422
.*C300800-301000,335000,412000,489600,490600-490620,490740       S22025 00028522
.*C492800,504800,580600-581000,584000,587200-587600              S22025 00028622
.*C589198-589266,594200,671800,672000,674200,685200              S22025 00028722
.*C719700-719750                                                 S22025 00028822
.*D037600,111400,118000,145200-147200,298400-298800              S22025 00028922
.*D357000-357200,411400,490810-490870,585800-586400              S22025 00029022
.*D598400-598800,670200-670400,674200                            S22025 00029122
.*A034800,207800,275200,297800,312600,315800,327600,330400       S22026 00029222
.*A336600,346000,347000,351400,352600,356800,452600,522400       S22026 00029322
.*A654800,692200,692400,700200                                   S22026 00029422
.*C357000-357200,522600-522800                                   S22026 00029522
.*D145200-147200,291000,656600                                   S22026 00029622
.*A446800                               MODIFIED 11/15/71        A42413 00030522
.*A022000,368200,369400,380400,719600                           SA48278 00030622
.*A593000                                                       SA49233 00030722
.*A369500,719630                                                SA51061 00030822
.*C368650                                                       SA51061 00030922
.*A448000                               MODIFIED 12/02/71        A42413 00031022
.*A448180                                                         M2561 00031122
.*C030400                                                         M2561 00031222
.*D447600,447800                                                  M2561 00031322
.*C663200,664000                                                SA51097 00031422
.*C104600                                                       SA51791 00031522
.*A366800                                                       SA52517 00031622
.*C466800,467800,468200,468600                                  SA54276 00031722
.*A469800                                                       SA55941 00031822
.*A086220,097620,168010,176007                                  SA48276 00032022
.*D168610-168710                                                SA48276 00032122
.*A228040                                                       SA50194 00032222
.*A022000,064000,119600                                         SA51090 00032322
.*C118200-118400,120400,702010                                  SA51090 00032422
.*D119000                                                       SA51090 00032522
.*A689040                                                       SA52946 00032622
.*C172600,173400,413400,414400,A414500                          SA54923 00032722
.*A000200,002000,616800,618400                                  SA56617 00032822
.*C000400,000410-000426,000600-000800,001000,615200-615400      SA56617 00032922
.*D002200-019600                                                SA56617 00033022
.*A038410                                                       SA56915 00033122
.*C384200                                                       SA57329 00033222
.*A049060-049120                                                 A56906 00033322
.*C049000                                                        A56906 00033422
.*A162000,692200,692400                                          S99244 00033522
.*C149400,22220                                                  S99244 00033622
.*C466800,467800,468200,468600                                  SA54276 00033722
.*A469950,477000,477600                                         SA57685 00034122
.*C477000                                                       SA57685 00034222
.*C228040                                                       SA58997 00034322
.*D591203-591206,591230                                         SA59020 00034422
.*D521800-522400,523000,705400                                   S21903 00034522
.*A547600                                                       SA57695 00034622
.*C470000,547800,552200                                         SA57695 00034722
.*D552600-555000                                                SA57695 00034822
.*A469950                                                       SA59538 00034922
.*C466000                                                       SA59538 00035022
.*C062600                                                       SA59027 00035122
.*C061000,086300-086301,097680,301800,335200,411775-411795      SA59028 00035222
.*C411806-411810,451400,719560                                  SA59028 00035305
.*A125400                                                       SA59992 00035405
.*A117800                                                       SA61780 00035505
.*D121400                                                       SA61780 00035605
.*A199080                                                       SA62341 00035705
.*A311800                                                       SA61094 00035805
.*C046000                                                       SA62408 00035905
.*D432926                                                       SA62383 00036005
.*A608400                                                       SA62329 00036105
.*C609200,609800-610000                                         SA62329 00036205
.*451480                                                        SA62984 00036305
.*A172400                                                       SA61779 00036405
.*C058710                                                       SA61779 00036505
.*A411830                                                       SA63959 00036605
.*D411809-411812                                                SA63959 00036705
.*A036200                                                       SA65392 00036854
.*A398610,720091                                                SA62991 00036954
.*D 300600                                                      SA61794 00037054
.*C 301200-301900                                               SA61794 00037154
.*A049000                                                       SA64676 00037254
.*A634800,643000                                                SA65359 00037354
.*C618470-618480                                                SA65359 00037454
.*A701740,701800                                                SA65374 00037554
.*A471600,472000                                                SA65357 00037654
.*A700010,700900                                                SA65397 00037754
.*A613000                                                       OX02181 00037854
.*D613800                                                       OX02181 00037954
.*C569600-569800                                                SA65389 00038054
.*C398510                                                       SA66594 00038154
.*A577800                                                       SA65865 00038254
.*D577000-577200                                                SA65865 00038354
.*A376000                                                       SA65387 00038454
.*D376800                                                       SA65387 00038554
.*A115200                                                       SA66616 00038654
.*A035200                                                       SA65906 00038754
.*D689001-689002                                                SA66937 00038854
.*A007600,054800,414400,415000,418200,455000,702800,710810       X01004 00038954
.*C030800-034400,054800,124440,137800,179000,275500,             X01004 00039054
.*C291200-291400,300000-300400,352000-352400,352800,358000,      X01004 00039154
.*C398730,413200-414400,414600-415000,432930,534600-536400,      X01004 00039254
.*C655660                                                        X01004 00039354
.*D006000-006400,022050,034600,055000-055090,124600-124800,      X01004 00039454
.*D138000,179200-179400,291600-291800,300600-300630,353000,      X01004 00039554
.*D358200,453200-453800,455200,536600,537400-537600              X01004 00039654
.*A000000                                                        Y01948 00039754
.*C035400,054012,054168,107203,107243,118080,127600,282000,      Y01948 00039854
.*C282800,293000,315870,327685,341780,354100,378200,385600,      Y01948 00039954
.*C395600,404600,405400,420600,443600,444200,587800,592600,      Y01948 00040054
.*C655800,698600-698800,701054,701057                            Y01948 00040154
.*D000200-000240,035600,054013-054014,                           Y01948 00040254
.*D054175-054182,118100-118120,127800-128000,282200,284800,      Y01948 00040354
.*D293200-293400,315880-315910,327690-327695,341784-341788,      Y01948 00040454
.*D354120-354140,376600,378400-378600,385800-386000,             Y01948 00040554
.*D395800-396000,404800-405000,405600-405800,420640-420680,      Y01948 00040654
.*D443800-444000,444400-444600,588000-588200,592800-593000,      Y01948 00040754
.*D656000-656200,698200,701055,701058-701059                     Y01948 00040854
.*A025600,036000,036220,049200,488800,702020,702030,720091       X02004 00040954
.*C030960-034160,035400,036000,064060,120456,294920,             X02004 00041054
.*C300400,300740,368300,489490,489550,589163-589165,589179,      X02004 00041154
.*C589181,720000                                                 X02004 00041254
.*D021000,030800-030840,034180-034920,294930,300900-301000,      X02004 00041354
.*D488800-489070,489200,489600                                   X02004 00041454
.*C418296,418300                                                 Y00482 00041554
* A580200                                                       SA66604 00041605
* C301350-301920                                                SA66604 00041705
* C329780                                                       SA66598 00041805
* A700340                                                       SA65428 00041905
* D700370                                                       SA65428 00042005
* A432799                                                       SA65874 00042105
* A700880                                                       SA66946 00042205
* A330020,330146,348000                                         SA66632 00042305
* C057800,111200-112400                                         SA67139 00042405
* A110600                                                       S167139 00042505
* D686100,686150                                                SA62379 00042605
* A411720                                                       SA63595 00042705
* D411760-411765                                                SA63595 00042805
* A056200                                                       OX03963 00042905
* A701057                                                       OX03941 00043005
* A101600                                                       OY00507 00043105
* A054021,054189                                                OY03460 00043205
* D053800-054000                                                OY03460 00043305
* C330480-330500                                                SA68026 00043405
* A236600,297000,428600                                         SA68035 00043505
* A168600                                                       SA69087 00043605
* D172500                                                       SA69087 00043705
* A301290                                                       SA64386 00043805
* 376400                                                       @YA04894 00043961
* C113400                                                      @SA70316 00044061
* C484720                                                      @SA70874 00044161
* A552300                                                      @SA69964 00044261
* A204000                                                      @SA69968 00044361
* C678600                                                      @ZO2X6I0 00044461
*A483600                                                       @SA71694 00044561
*C411830                                                       @SA71658 00044661
*A327000                                                       @SA71963 00044761
*A279000                                                       @SA71490 00044861
*A137200                                                       @SA61090 00044961
*C036070-036090,036095                                         @ZA02096 00045061
*A049320                                                       @ZA02096 00045161
*C449630                                                       @ZA02095 00045261
*A720151                                                       @ZA02095 00045361
*A279600                                                       @YA06316 00045461
*C330148                                                       @YA06327 00045561
*A118080                                                       @YA06889 00045661
*A633600                                                       @XA07517 00046600
*A117860,118080,124400,580320,587800                           @SA62375 00047600
*C149400-149800,222200                                         @SA72446 00048600
*A577800                                                       @XA06335 00049600
*A469800,469950                                                @YA08108 00050600
*C196800                                                       @YA06307 00051600
*A575800,577817                                                @YA05167 00052600
*C577801,577803-577808,577811-577812,577920                    @YA05167 00053600
*A477600                                                       @SA73826 00054600
*D137300                                                       @SA73574 00055600
*A137400                                                       @SA73574 00056600
*C214000                                                       @SA74852 00057600
*A117810                                                       @SA74852 00058600
*C547920                                                       @SA74852 00059600
*D348050,348150                                                @XA09327 00060600
*A373600                                                       @XA09327 00061600
*C049330,049360                                                @ZA03108 00062600
*A646600                                                       @YA09751 00063600
*D117863-117866,C119400,A119400,A118100                        @YA10052 00064600
*A577950,D577801-577823                                        @YA10237 00065600
*C312000-312200                                                @SA75453 00066600
*A162550,163000                                                @YA10410 00067600
*A118600,A120470                                               @YA10673 00068600
*C196800-196950                                                @SA75722 00069600
*C118100                                                       @YA10695 00070600
*C048400                                                       @SA75471 00071600
*A149000                                                       @YA11157 00072600
*D149600                                                       @YA11157 00073600
*C503900-505200                                                @XA11311 00074600
*C312200,312260                                                @YA11162 00075600
*D433066-436600,D275600,D347400,D599000,D342400                @YA11151 00076600
*C560000                                                       @XA11338 00077600
*A190800                                                       @YA11495 00078600
*C503900                                                       @OS76474 00079600
*C429900-429960                                                @OS76301 00079791
*A119200,A119600                                               @OY11504 00079891
*D054009-054011                                                @OS76307 00079991
*A316800                                                       @OS76271 00080091
*A111000                                                       @OY11520 00080191
*A162099,C222200                                               @OS76283 00080291
*C428680                                                       @OY11499 00080391
*C411735,D411766-411767                                        @OS76490 00080491
*C188600                                                       @OY12393 00080591
*D376100                                                       @OS76479 00080691
*C162570                                                       @OY12287 00080791
*D163020-163160                                                @OY12287 00080891
*D196820-196960                                                @OY12287 00080991
*A339600,D340200-340800,C342000,C344600,D345000-345400,C346100 @OZ07786 00081091
*A250800,C251800-252000                                        @OY10984 00081191
*A374200                                                       @OX11954 00081291
*C519000-519800                                                @OY11983 00081391
*A023000,603700,653120,710850                                  @XA08073 00081491
*C162090,603600,653100,657580-657730                           @XA08073 00081591
*A204130                                                       @OZ09265 00081691
*D190840,190960                                                @OS76981 00081791
*C330280,330286,A330290                                        @OX12505 00081891
*C353800                                                       @OX12508 00081991
*C621400                                                       @OX12509 00082091
*C187000                                                       @OS76996 00082191
*A246800                                                       @OY12676 00082291
*A689800                                                       @OX12511 00082391
*A120568                                                       @OZ09957 00082491
*A310200,C311870-311890                                        @OZ09279 00082591
*C353800                                                       @OY13656 00082691
*A166200                                                       @OX12567 00082791
*C643040                                                       @OZ08362 00082891
*D643120                                                       @OY13667 00082991
*C621400                                                       @OZ08362 00083091
*A058800                                                       @OS77837 00083191
*D201800-202000,208400-208600                                  @OY14092 00083291
*A232000                                                       @OS77835 00083391
*A086200,408400,C270600-270800,431400,D409400,A097720          @OY14057 00083491
*D250810-250900,251820-252090,C086300-086320                   @OY14057 00083591
*C398650-398700                                                @OX12579 00083691
*A207200,C657614-657668                                        @OY13632 00083791
*A376000                                                       @OS77376 00083891
*A493000                                                       @OX14778 00083991
*A127350                                                       @OZ14176 00084091
*D127230-127350,A133200                                        @OZ14197 00084191
*A101640,A101700                                               @OS77954 00084291
*A683800,A694800                                               @OX14796 00084391
*C166215                                                       @OX16385 00084491
*D429900,429930                                                @OZ16530 00084591
*A432886                                                       @OS77965 00084691
*A029800,451480,C701954,702020                                 @OZ16540 00084791
*D035250,035300                                                @OX16693 00087791
*A235000                                                       @OX16686 00090791
*C133230-133320                                                @OZ17622 00093791
*A428685                                                       @OZ18753 00093891
*C101641                                                       @OS78332 00093991
*A270650                                                       @OX16703 00094091
* C001810,012000,035400,035600,454340,701404                   @G36XRIV 00098000
*D106800-107200,C107210-107220,162600,288000,A448920           @OX17153 00098100
*C036288,A036296,D101641-101655,D101710                        @OZ24288 00099100
*C225600                                                       @OX19180 00100100
*127200                                                        @OZ25091 00100500
*D133220,133270                                                @OZ25091 00100900
*C230000                                                       @OS79864 00101300
*D493060_493120                                                @OZ25700 00101700
*D166203-166212,D166221                                        @OZ26326 00102100
*C451440                                                       @OZ25960 00102500
*D451480,451481,493060,493120                                  @OZ25960 00102900
*A036288                                                       @OZ27868 00103100
.*A527200                                                      @OY19728 00103300
*A366200                                                       @OY20569 00103486
.*****        DEVELOPMENT                                       ******* 00103586
.*A022460-022520,442600-444700,448186-448193,720160-720187       Y02027 00103686
.*C030860,030980                                                 Y02027 00103786
.*D033940,442600-445800,448020-448160,448186-448192              Y02027 00103886
*A522909                                                       @OZ29663 00103986
*C216000                                                       @OY19793 00104086
*A451400                                                       @OX21187 00104186
*A693000                                                       @OZ30260 00104286
*A033800                                                       @OY20488 00104386
*C719428,719500                                                @OY20488 00104486
*C242800                                                       @OZ31566 00104586
*********************************************************************** 00120020
*                                                                     * 00121022
         TITLE '&NAME     LINE END APPENDAGE'                           00122022
&NAME    CSECT                                                          00123022
*                                                                     * 00124022
*********************************************************************** 00125022
*TITLE -- LINE END APPENDAGE                                          * 00140020
*                                                                     * 00160020
         AIF   ('&GEN' NE 'MINI').TAG1                                  00161022
*       MODULE NAME = IGG019Q4 (MINI)                                 * 00162022
         AGO   .TAG5                                                    00163022
.TAG1    AIF   ('&GEN' NE 'STSP').TAG2                                  00164022
*       MODULE NAME = IGG019Q3 (START/STOP)                           * 00165022
         AGO   .TAG5                                                    00166022
.TAG2    AIF   ('&GEN' NE 'BISC').TAG3                                  00167022
*       MODULE NAME = IGG019Q2 (BI-SYNC)                              * 00168022
         AGO   .TAG5                                                    00169022
.TAG3    AIF   ('&GEN' NE 'QTAM').TAG4                                  00170022
*       MODULE NAME = IGG019Q5 (QTAM)                                 * 00171022
         AGO   .TAG5                                                    00172022
.TAG4    AIF   ('&GEN' NE '').TAG5                                      00173022
*       MODULE NAME = IGG019R0 (BOTH)(BLANK)                          * 00174022
.TAG5    ANOP                                                           00175022
*                                                                     * 00176022
*       DESCRIPTIVE NAME = LINE END APPENDAGE                         * 00177022
*                                                                     * 00178022
*       COPYRIGHT = 'NONE'                                            * 00179022
*                                                                     * 00180022
*       STATUS: CHANGE LEVEL 10                                @G36XRIV 00181000
*                                                                     * 00200020
*FUNCTION -- AS A LOGICAL EXTENSION OF IOS LINE END APPENDAGE OBTAINS * 00220020
*   CONTROL WHEN AN I/O INTERRUPT OCCURS WITH ENDING STATUS, WHEN AN  * 00240020
*   ERROR IS DETERMINED TO BE PERMANENT BY ERP, OR WHEN AN ERROR IS   * 00260020
*   CLEARED BY ERP.                                                   * 00280020
*                                                                     * 00300020
*ENTRY POINTS -- FIRST EXECUTABLE INSTRUCTION                         * 00320020
*                                                                     * 00340020
*INPUT -- R2  IOB ADDRESS                                             * 00360020
*   R14 RETURN ADDRESS                                                * 00380020
*   R15 ENTRY POINT ADDRESS                                           * 00400020
*                                                                     * 00420020
*OUTPUT -- REGISTERS 0-9,14,15 REMAIN TRANSPARENT TO IOS UPON EXIT    * 00440020
*   FROM THIS MODULE                                                  * 00460020
*                                                                     * 00480020
*EXTERNAL ROUTINES --                                                 * 00500020
*   OS POST - TO POST MCP WAIT COMPLETE                               * 00520020
*                                                                     * 00540020
*   STAGE TWO OF EXIT EFFECTOR - TO SCHEDULE IQE                      * 00560020
*                                                                     * 00580020
*                                                                     * 00600020
*   'TCB REMOVAL ROUTINE' - TO MAKE MCP TCB NON-DISPATCHABLE FOR MP   * 00620020
*   65 ONLY.                                                          * 00640020
*                                                                     * 00660020