         MACRO                                                          00050002
&NAME    PCIPOST &ECB=,&SVAREA=,&RQE=,&CODE=                            00100002
*                                                                       00150002
*        THIS MACRO MAY BE USED TO POST FROM PCI APPENDAGES.            00200002
*        IF THE I/O REQUEST IS A VIRTUAL REQUEST, THE NORMAL            00210002
*        BRANCH INTERFACE TO POST IS EFFECTED. IF THE I/O REQUEST       00220002
*        IS NOT A VIRTUAL REQUEST, THE CROSS MEMORY INTERFACE           00230002
*        TO POST IS EFFECTED.                                           00240002
*                                                                       00242002
*         PARAMETERS -                                                  00260002
*              &ECB=LABEL OR (REG)  ADDRESS OF ECB                      00270002
*                                                                       00280002
*              &SVAREA=LABEL OR (REG) ADDRESS OF 16 WORD SAVE AREA      00290002
*                                                                       00292002
*              &RQE=LABEL OR (REG)  ADDRESS OF RQE                      00294002
*                                                                       00296002
*              &CODE=LABEL OR (REG) ADDRESS OF FULLWORD COMPLETION      00298002
*                                   CODE OR REGISTER CONTAINING THE     00298402
*                                   COMPLETION CODE. THE CODE MUST      00298802
*                                   BE LEFT JUSTIFIED WITHIN THE        00299202
*                                   WORD OR REGISTER.                   00299602
*                                                                       00310002
*         IF &CODE IS OMITTED, THE COMPLETION CODE IN THE IOB           00320002
*         IS USED.  ALL OTHER PARAMETERS MUST BE SPECIFIED.             00330002
*                                                                       00340002
*        BASE ADDRESSABILITY OF THE CALLING MODULE IS ASSUMED.          00342002
*        REGISTER 9,10,11,12,13, OR 14 MUST NOT BE USED AS THE          00344002
*        MODULES BASE REGISTER  ACROSS THIS EXPANSION.                  00346002
*        REGISTERS 1,9,10,11,12,13 ARE  USED. ALL REGS ARE RESTORED     00350002
*                                                                       00400002
*        MAPPING MACROS REQUIRED -                                      00410002
*              CVT,                                                     00420002
*              IHASRB,                                                  00430002
*              IHAASVT,                                                 00440002
*              IECDRQE,                                                 00442002
*              IECDIOSB                                                 00444002
*                                                                       00450002
         AIF   (T'&ECB EQ 'O').NOECB                                    00500002
         AIF   (T'&SVAREA EQ 'O').NOSVARA                               00550002
         AIF   (T'&RQE EQ 'O').NORQE                                    00600002
         AIF   ('&SVAREA'(1,1) EQ '(').RGST                             00650002
&NAME    STM   0,15,&SVAREA        SAVE REGISTERS               @YM3186 00700002
         LA    9,&SVAREA           SAVE THE SAVE AREA ADDR IN R 9       00750002
         AGO   .GEN1                                                    00800002
.RGST    ANOP                                                           00850002
&NAME    STM   0,15,0&SVAREA       SAVE REGISTERS               @YM3186 00900002
         LR    9,&SVAREA(1)        SAVE THE SAVE AREA ADDR IN R 9       00910002
.GEN1    LA    14,Z&SYSNDX         POINT TO ZEROS                       00950002
         AIF   ('&RQE'(1,1) EQ '(').RGRQE                               01150002
         L     1,&RQE              LOAD POINTER TO RQE                  01200002
         AGO   .GEN2                                                    01250002
.RGRQE   AIF   ('&RQE(1)' EQ '1').GEN2                                  01260002
         L     1,4*&RQE(1).(,9)     LOAD POINTER TO RQE         @YM3186 01300002
.GEN2    TM    RQETYPE-RQE(1),X'50' VIRTUAL REQUEST                     01350002
         BNZ   P&SYSNDX            YES, USE PRESENT MEMORY POST         01400002
         LA    14,F&SYSNDX         POINT TO X'80'                       01450002
         L     13,RQESRB-RQE(1)    LOAD POINTER TO ASSOCIATED SRB       01500002
         L     13,SRBPARM-SRB(13)  LOAD POINTER TO IOSB         @YM3186 01550002
         LH    13,IOSASID-IOSB(13) LOAD THE ASID FROM THE IOSB  @YM3186 01600002
         L     12,CVTPTR           CVT ADDRESS                  @YM3186 01610002
         L     12,CVTASVT-CVT(,12) ADRESS SPACE VECTOR TABLE    @YM3186 01620002
         SLL   13,2                MULTIPLY ASID BY 4 TO FIND   @YM3186 01630002
*                                  * OFFSET IN ASVT FOR THIS ASID       01632002
         L     13,ASVTFRST-ASVT(13,12) GET ASCB ADDRESS         @YM3186 01640002
         L     12,E&SYSNDX         POINT TO DUMMY ERROR RECOVERY        01650002
         IC    0,RQEPRT-RQE(1)     SET REQUESTORS KEY IN 0.    @ZA15372 01655003
P&SYSNDX DS    0H                                                       01660002
         AIF   ('&ECB'(1,1) EQ '(').RGECB                               01700002
         L     11,&ECB             LOAD POINTER TO ECB           YM1085 01750002
         AGO   .GEN3                                                    01800002
.RGECB   AIF   ('&ECB(1)' EQ '11').GEN3                          YM1085 01850002
         L     11,4*&ECB(1).(,9)   PLACE POINTER TO ECB IN REG  @YM3186 01900002
.GEN3    ICM   11,8,0(14)          SET THE HIGH BYTE             YM1085 01950002
         AIF   (T'&CODE EQ 'O').IOBCOD                                  02050002
         AIF   ('&CODE'(1,1) EQ '(').RGCODE                             02100002
         L     10,&CODE            LOAD THE ECB COMPLETION CODE  YM1085 02150002
         AGO   .GEN4                                                    02200002
.RGCODE  AIF   ('&CODE(1)' EQ '10').GEN4                         YM1085 02210002
         L     10,4*&CODE(1).(,9)  LOAD THE ECB COMPLETION CODE @YM3186 02250002
         AGO   .GEN4                                                    02300002
.IOBCOD  L     10,RQEIOB-RQE(1)    LOAD IOB ADDRESS              YM1085 02350002
         IC    10,4(10)            LOAD THE ECB COMPLETION CODE  YM1085 02400002
         SLL   10,24(0)            SHIFT IT TO THE HIGH BYTE    YM2296P 02450002
.GEN4    TM    RQETYPE-RQE(1),X'50'  VIRTUAL REQUEST ?         @ZA15372 02480003
         BNZ   Q&SYSNDX              YES, BYPASS               @ZA15372 02510003
         O     10,F&SYSNDX           NO, SET TO VAL CK ECB     @ZA15372 02540003
Q&SYSNDX EQU   *                                               @ZA15372 02550003
         L     15,CVTPTR(0,0)      LOAD POINTER TO CVT         @ZA15372 02570003
         L     15,CVT0PT01-CVT(,15) LOAD POINTER TO POST ROUTINEYM2296P 02650002
         BALR  14,15               POST THE ECB COMPLETE                02700002
         LM    0,15,0(9)           RESTORE REGISTERS            @YM3186 02750002
         B     S&SYSNDX            SKIP ERROR ROUTINE                   02800002
         SPACE 2                                                        02850002
G&SYSNDX BR    14                  ERROR ROUTINE FOR XMPOST      YM1085 02900002
E&SYSNDX DS    0F                  WORD BOUNDARY ALIGNMENT     @ZA29188 02901003
         DC    X'80'               RECOVERY IN MASTER MEMORY   @ZA29188 02901203
         DC    AL3(G&SYSNDX)       ERROR ROUTINE ADDRESS       @ZA29188 02901403
F&SYSNDX DC    X'80000000'         CONSTANT                    @ZA15372 02902003
Z&SYSNDX DC    X'00'               ZEROS FOR HIGH BYTE                  02910002
S&SYSNDX DS    0H                  RETURN TO PCI APPENDAGE      @YM3186 02950002
         MEXIT                                                          03000002
.NOECB   MNOTE 8,'ECB OPERAND MUST BE SPECIFIED'                        03050002
         MEXIT                                                          03100002
.NOSVARA MNOTE 8,'SVAREA OPERAND MUST BE SPECIFIED'                     03150002
         MEXIT                                                          03200002
.NORQE   MNOTE 8,'RQE OPERAND MUST BE SPECIFIED'                        03250002
         MEND                                                           03300002
