         MACRO                                                          10000000
&NAME    PRPLY &SIZE=                                                   20000000
&NAME    WRTRP SIZE=&SIZE,DISP=18                                       30000000
         MEND                                                           40000000
