         MACRO                                                          00050002
&NAME    PSEUDO  &TMP=,                                                X00100002
               &PSEUDO=,                                               X00150002
               &MF=                                                     00200002
         GBLA  &$PSEUDO(5)                                              00250002
.*                                                                      00300002
.*       THIS MACRO SETS UP THE PSEUDO RETRY ROUTINE CONTROL BLOCK USED 00350002
.*       BY IKJEHSIR TO SUPPLY THE RETRY ROUTINE WITH ADDRESSABILITY.   00400002
.*                                                                      00450002
.*       &TMP IS THE ADDRESS OF THE WORD CONTAINING REG 1 AS THE TMP    00500002
.*             PASSED  TO THE CP.  IF IT IS REG FORM, THE REGISTER      00550002
.*             MUST CONTAIN REG 1 AS PASSED BY THE TMP.                 00600002
.*       &PSEUDO IS THE NAME OF THE PSEUDO MF=L FORM OF PSEUDO          00650002
.*                                                                      00700002
         AIF   ('&MF' EQ 'E').MFE  EXECUTE FORM                         00750002
.*                                                                      00800002
.*             LIST FORM                                                00850002
.*                                                                      00900002
.* CHECK TO SEE IF WE HAVE BEEN THRU ONCE, IF SO NEED A NAME            00950002
.*                                                                      01000002
         AIF   (&$PSEUDO(5) NE 0 AND T'&NAME EQ 'O').SEV0               01050002
&$PSEUDO(5) SETA &$PSEUDO(5)+1  SET TIMES THRU SW                       01100002
         SPACE 1                                                        01150002
&NAME  DS  0F   FULLWORD ALIGNMENT                                      01200002
         SPACE 1                                                        01250002
         AIF   (T'&NAME NE 'O').HISPS  USE HIS NAME                     01300002
$PSEUDO   DC    X'980FF008'    LM R0,R15,8(R15) LOAD REGS               01350002
         AGO   .DC47                                                    01400002
.HISPS   DC    X'980FF008'  LM R0,R15,8(R15) LOAD REGS                  01450002
.DC47    DC    X'47F0F000'    B  0(R15)  BR TO RETRY                    01500002
         SPACE 1                                                        01550002
.*                                                                      01600002
.* TO AVOID DUPLICATE NAMES, CHECK 1ST TIME THRU SW                     01650002
.*                                                                      01700002
         AIF   (&$PSEUDO(5) GT 1).DSIT   ONLY GEN ONCE                  01750002
*        THE FOLLOWING 16 DC'S ARE A STORAGE AREA FOR THE               01800002
*        RETRY ROUTINE'S REGISTERS.  THE SLOTS FOR R0, R1, R2,          01850002
*        AND R15 WILL BE SET UP BY THE STAE EXIT ROUTINE                01900002
*        AS FOLLOWS:                                                    01950002
*              R0    THE CODE GIVEN TO THE EXIT ROUTINE BY STAE         02000002
*              R1    THE ABEND CODE, RIGHT JUSTIFIED                    02050002
*              R2    THE ENTRY NUMBER IN A CODE LIST                    02100002
*              R15   THE ADDRESS OF THE RETRY ROUTINE                   02150002
*                                                                       02200002
*        IF THE ENTRY IS FOR A 33E ABEND, R13 AND R14 WILL BE           02250002
*        SET UP AS FOLLOWS:                                             02300002
*              R13   POINTER TO A SAVE AREA                             02350002
*              R14   RETURN ADDRESS TO IKJEHSIR                         02400002
*                                                                       02450002
         SPACE 1                                                        02500002
.*                                                                      02550002
.* IF THE USER OF THE MACRO USES IT TWICE, THE SECOND TIME              02600002
.* IT IS USED, A DS IS GENERATED FOR THE DC'S THAT FOLLOW               02650002
.*                                                                      02700002
$RETRY0  DC    F'0'           STORAGE FOR R0                            02750002
$RETRY1  DC    F'0'           STORAGE FOR R1                            02800002
$RETRY2  DC    F'0'                STORAGE FOR R2                       02850002
$RETRYS  DC    10F'0'              THE REST OF THE REGS                 02900002
$RETRY13 DC    F'0'               STORAGE FOR R13                       02950002
$RETRY14 DC    F'0'               STORAGE FOR R14                       03000002
$RETRY15 DC    F'0'           STORAGE FOR R15                           03050002
         AGO   .DSIT1 BYPASS                                            03100002
.DSIT    DS    16F STORAGE FOR REGISTERS                                03150002
         SPACE 1                                                        03200002
         AGO   .DSIT3     BYPASS COMMENTS                               03250002
.DSIT1   ANOP                                                           03300002
         SPACE 1                                                        03350002
*        THE FOLLOWING WORD IS REQUIRED SO THAT THE PUTLINE             03400002
*        ROUTINE CAN BE CALLED BY THE STAE EXIT ROUTINE.                03450002
*        IT IS REGISTER 1 AS GIVEN TO THE CP BY THE TMP.                03500002
         SPACE 1                                                        03550002
$TMPR1   DC    F'0'           REG 1 FROM TMP                            03600002
         AGO   .DSIT4      BYPASS                                       03650002
.DSIT3   DS    F         STORAGE FOR TMP REG 1                          03700002
.DSIT4   ANOP                                                           03750002
         SPACE 1                                                        03800002
         MEXIT                                                          03850002
.*                                                                      03900002
.*             EXECUTE FORM                                             03950002
.*                                                                      04000002
.*       IF WE HAVE ALREADY GENNED THE TWO DC'S, DONT DO IT AGAIN       04050002
.*                                                                      04100002
.MFE     AIF   (&$PSEUDO(1) EQ 1).NO                                    04150002
.*                                                                      04200002
.*       NEED A NAME FOR THE BRANCH INSTRUCTION                         04250002
.*                                                                      04300002
         AIF   (T'&NAME EQ 'O').NONAM                                   04350002
         SPACE 1                                                        04400002
&$PSEUDO(1) SETA 1                                                      04450002
         B     &NAME               BR AROUND INSTRUCTIONS               04500002
         SPACE 1                                                        04550002
$PINSTR  DC    X'980FF008'    LM R0,R15,8(R15)                          04600002
         DC    X'47F0F000'    B  0(R15)                                 04650002
.NO      SPACE 1                                                        04700002
.*                                                                      04750002
.*       IF HE HAS PASSED ME A NAME FOR THE PSEUDO MF=L, USE IT         04800002
.*             IF NOT, WE WILL USE MY GENERATED NAME                    04850002
.*                                                                      04900002
         AIF   (T'&PSEUDO EQ 'O').MYNAME                                04950002
.*                                                                      05000002
.* CHECK TO SEE IF IN A REGISTER                                        05050002
.*                                                                      05100002
         AIF   ('&PSEUDO'(1,1) EQ '(').HISREG                           05150002
&NAME    MVC   &PSEUDO.(8),$PINSTR  MOVE INSTRUCTIONS                   05200002
         STM   0,15,&PSEUDO+8     STORE REGS                            05250002
.*             IF NO TMP PARM, GET OUT                                  05300002
         AIF   (T'&TMP EQ 'O').END                                      05350002
         AIF   ('&TMP'(1,1) EQ '(').HISREGN                             05400002
         L     14,&TMP            GET TMP REG1                          05450002
         ST    14,&PSEUDO+72      STORE IN LIST                         05500002
         AGO   .END                                                     05550002
.HISREG  ANOP                                                           05600002
&NAME    MVC   0(8,&PSEUDO(1)),$PINSTR  MOVE INSTRUCTIONS               05650002
         STM   0,15,8(&PSEUDO(1))  STORE REGS                           05700002
         AIF   (T'&TMP EQ 'O').END                                      05750002
         AIF   ('&TMP'(1,1) EQ '(').HISREGT                             05800002
         L     14,&TMP            GET TMP REG 1                         05850002
         ST    14,72(&PSEUDO(1))  STORE IN LIST                         05900002
         AGO   .END                                                     05950002
.HISREGN ST    &TMP(1),&PSEUDO+72  STORE IN LIST                        06000002
         AGO   .END                                                     06050002
.HISREGT ST &TMP(1),72(&PSEUDO(1)) STORE IN LIST                        06100002
         AGO   .END                                                     06150002
.MYNAME  ANOP                                                           06200002
&NAME    MVC   $PSEUDO(8),$PINSTR MOVE INSTRUCTIONS                     06250002
         STM   0,15,$RETRY0    STORE ALL REGS                           06300002
         AIF   (T'&TMP EQ 'O').END                                      06350002
         AIF   ('&TMP'(1,1) EQ '(').RTMP                                06400002
         L     14,&TMP        GET TMP REG 1                             06450002
         ST    14,$TMPR1      STORE IN LIST                             06500002
.END     SPACE 1                                                        06550002
         MEXIT                                                          06600002
.RTMP    ST    &TMP(1),$TMPR1 STORE TMP REG 1                           06650002
         AGO   .END                                                     06700002
.NONAM   MNOTE 8,'NAME FIELD OMITTED'                                   06750002
         SPACE 1                                                        06800002
         MEXIT                                                          06850002
.SEV0    MNOTE *,'PSEUDO MACRO USED MORE THAN ONCE AND NAME OMITTED'    06900002
         SPACE 1                                                        06950002
         MEXIT                                                          07000002
         MEND                                                           07050002
