         MACRO                                                          10000000
&NAME    PWRT  &SIZE=                                                   20000000
&NAME    WRTRP SIZE=&SIZE,DISP=12                                       30000000
         MEND                                                           40000000
