         MACRO                                                          10000000
&NAME    PWTO  &MT=,&MSG=,&REG=                                         20000000
&NAME    CMWTO MT=&MT,MSG=&MSG,REG=&REG,DISP=6                          30000000
         MEND                                                           40000000
