         MACRO                                                          10000000
&NAME    PWTOR &MT=,&MSG=,&REG=,&WAIT=YES,&SIZE=                        20000000
&NAME    CMWTO MT=&MT,MSG=&MSG,REG=&REG,WAIT=&WAIT,DISP=24,SIZE=&SIZE   30000000
         MEND                                                           40000000
