         MACRO                                                          00020000
&NAME    RESTORE &LIST                                                  00040000
         AIF   ('&LIST' EQ '').E1                                       00060000
&NAME    IHBINNRA &LIST                     LOAD REG 1                  00080000
         SVC   17                                ISSUE SVC FOR RESTORE  00100000
         MEXIT                                                          00120000
.E1      IHBERMAC 01,150                    LIST ADDR MISSING           00140000
         MEND                                                           00160000
