         MACRO                                                          01000000
&NAME    SET   &SW,&OP                                                  02000000
         GBLA  &INDEX                                                   03000000
         GBLC  &DEFNAME(255),&SWNAME(255)                               04000000
         LCLA  &I,&J,&K,&II                                             05000000
         LCLC  &DEF,&P(8)                                               06000000
.*       SET A SPECIFIED BIT ON OR OFF.                                 06050000
         AIF   (K'&SW EQ 0).ERR1                                        07000000
         AIF   (N'&SW LT 1 OR N'&SW GT 8).ERR1                          08000000
.LOOP1   ANOP                                                           09000000
&I       SETA  &I+1                                                     10000000
         AIF   (&I GT &INDEX).DBV1                                      11000000
         AIF   ('&SW(1)' NE '&SWNAME(&I)').LOOP1                        12000000
         AIF   (K'&OP EQ 0).ERR1                                        13000000
&DEF     SETC  '&DEFNAME(&I)'                                           14000000
&I       SETA  &I-7                                                     15000000
&J       SETA  &I+14                                                    16000000
         AIF   (&I GE 1).OKI                                            17000000
&I       SETA  1                                                        18000000
.OKI     AIF   (&J LE &INDEX).OKJ                                       19000000
&J       SETA  &INDEX                                                   20000000
.OKJ     ANOP                                                           21000000
&II      SETA  &I                                                       22000000
&K       SETA  1                                                        23000000
.LOOP2   ANOP                                                           24000000
&K       SETA  &K+1                                                     25000000
         AIF   (&K GT N'&SW).DONE1                                      26000000
.LOOP3   AIF   ('&SW(&K)' EQ '&SWNAME(&I)').MATCH1                      27000000
&I       SETA  &I+1                                                     28000000
         AIF   (&I LE &J).LOOP3                                         29000000
         AGO   .ERR2                                                    30000000
.MATCH1  AIF   ('&DEF' NE '&DEFNAME(&I)').ERR2                          31000000
&P(&K)   SETC  '+'                                                      32000000
&I       SETA  &II                                                      33000000
         AGO   .LOOP2                                                   34000000
.DONE1   AIF   ('&OP' NE 'ON').TRYOFF                                   35000000
&NAME    OI    &DEF,&SW(1)&P(2)&SW(2)&P(3)&SW(3)&P(4)&SW(4)&P(5)&SW(5)&X36000000
               P(6)&SW(6)&P(7)&SW(7)&P(8)&SW(8)                         37000000
         AGO   .EXIT                                                    38000000
.TRYOFF  AIF   ('&OP' NE 'OFF').TRYFLIP                                 39000000
&NAME    NI    &DEF,BITFF-(&SW(1)&P(2)&SW(2)&P(3)&SW(3)&P(4)&SW(4)&P(5)X40000000
               &SW(5)&P(6)&SW(6)&P(7)&SW(7)&P(8)&SW(8))                 41000000
         AGO   .EXIT                                                    42000000
.TRYFLIP AIF   ('&OP' NE 'FLIP').ERR1                                   43000000
&NAME    XI    &DEF,&SW(1)&P(2)&SW(2)&P(3)&SW(3)&P(4)&SW(4)&P(5)&SW(5)&X44000000
               P(6)&SW(6)&P(7)&SW(7)&P(8)&SW(8)                         45000000
         AGO   .EXIT                                                    46000000
.DBV1    AIF   (N'&SW NE 1).ERR1                                        47000000
         AIF   (K'&SW GT 7).ERR1                                        48000000
         AIF   (K'&OP EQ 0).DVB2                                        49000000
&NAME    MVI   V&SW,&OP                                                 50000000
         AGO   .EXIT                                                    51000000
.DVB2    ANOP                                                           52000000
&NAME    MVI   V&SW,&SW                                                 53000000
.EXIT    MEXIT                                                          54000000
.ERR1    MNOTE 8,'PARAMETER ERROR.'                                     55000000
         MEXIT                                                          56000000
.ERR2    MNOTE 8,'SWITCH NOT PREVIOUSLY DEFINED OR NOT IN SAME BYTE.'   57000000
         MEND                                                           58000000
