         MACRO                                                          00000105
&NAME    SNDSCH  &GEN=MAXI                                              00000205
.*A-000000-999999                                              @X31X8I0 00000308
.*                                                                      00010308
.******************* MICROFICHE FLAGS *********************** SUPT CODE 00020308
.*C341000                                                        X02004 00030308
.*A573700                                                        Y01948 00040308
.*C556000,567423                                                 Y01948 00050308
.*D557000,558000,567432,567441                                   Y01948 00060308
.*A388000,573000                                                 S99228 00130022
.*A186000,217000,462600,488000                                   S22029 00130122
.*C001000-002000                                                 S22029 00130222
.*A355600,355700                                                 A42390 00130322
.*A400000,420000,426000,439000,446000,457000                     S21101 00130422
.*A507000,524000,528000,544000,566000                            S21101 00130522
.*C128000,442000,447000,458000,534000-537000                     S21101 00130622
.*D549000,606000-608000,614000                                   S21101 00130722
.*A114000,124000,403000,427050,427560,508400,535000,550000,      S22025 00130822
.*A558000,567126,567459                                          S22025 00130922
.*C128000,267000-268000,292000-293000,296000,534000,567000       S22025 00131022
.*D221000-225000,417000,427055,427085,427100-427300,427400-427700S22025 00131122
.*D439060-439240,439360-439840,505000,514000-515000,566180-566900S22025 00131222
.*D567000,567639,567657                                          S22025 00131322
.*A340450                                                         M2173 00131422
.*A220000                                                       SA56891 00131822
.*D177000-178000                                                SA56891 00131922
.*A565000,565200                                                SA52971 00132022
.*C567297-567324                                                SA52971 00132122
.*D545000,565400,567225,567477,567630-567648,569000             SA52971 00132222
.*A427020-427040,534000-534840                                  SA56606 00132322
.*D427420-427480,427560,427580-427800,534000-534500             SA56606 00132422
.*A561000                                                       SA60792 00132505
.*C567072,573200-573400                                         SA60792 00132605
.*C407500,409080,412000,443500,446000-446320                    SA61773 00132705
.*A409800,599800                                                SA58984 00132805
.*C015100-016000                                                SA58984 00132905
.*A461000,447200,524800                                         SA59034 00133005
.*C456000                                                       SA59034 00133105
.*D524100-524200                                                SA59034 00133205
.*C498000                                                       SA62953 00133305
.*A357000,357500                                                SA65412 00203352
.*A311050-311950                                                 Y05331 00203408
.*A427000,427400                                                OX02199 00233454
.*C389100,441600                                                SA65379 00243454
.*A389800                                                       SA65379 00253454
.*C357800-357900                                                SA68703 00253508
*A357500                                                       @ZA02054 00253761
*A183000                                                       @SA70324 00253861
*A248000,279000,573000                                         @SA71683 00253961
*A544600                                                       @SA72478 00254061
*D547300                                                       @SA72478 00254161
*C339200                                                       @YA08088 00254209
*A341660                                                       @YA08088 00254309
*C455000-461700                                                @ZA03063 00254409
.*A561400                                                       SA69635 00260508
.*A015000,017000,020000,024000,026000,065000,066000,101000       X03039 00260608
.*A146000,147000,189000,358600,362000,388000,392000,403000       X03039 00260708
.*A405600,409020,409080,409800,409930,416000,427020,427040,      X03039 00260808
.*A427540,428000,428070,434000,435000,437000,439000,442200,      X03039 00260908
.*A446500,469000,480000,483000,488500,492000,493000,507500,      X03039 00261008
.*A524800,526000,527000,528000,535500,536000,561000,561800,      X03039 00261108
.*A566000,567540,575000,599900,602000,605000,610000,613000       X03039 00261208
.*C004000,016500,088000,089000,090000,091000,431000,564000       X03039 00261308
.*D565000                                                        X03039 00261408
.*A427060,427090,427430,427520,                                  X03039 00261508
.*A000002                                                      @Z30X8IG 00267508
.*C002841,016500                                               @Z30X8IG 00275508
.*A080000,098000,101400,358715,474000,476000,599918            @Z30X8IR 00279508
.*A427170                                                      @Z30X8IM 00279608
.*A-365100,368300,384000                                       @X50X9IH 00280609
.*C-368300                                                     @X50X9IH 00281609
.*A358630,358680,358835,439095,439200                          @ZA03122 00281709
.*A413000                                                      @XA09773 00281809
.*A435100,435300                                               @X50X9II 00281909
.*D311280-311440,D312000                                       @YA11169 00282000
*D419000                                                       @OS76313 00282181
*C467000                                                       @OX11964 00282281
*C553000-555000                                                @OZ07113 00282391
*C553000-555000                                                @OY12395 00282491
*C405400                                                       @XA08073 00282591
*A156000,157000,160000,162200,C161600                          @OZ09912 00282691
*A256000                                                       @OY12421 00282791
*C467000,A469000                                               @OY12969 00282891
*A465000,C469200,A613000,A409930                               @OX13500 00282991
*A453000                                                       @OX12563 00283091
*D339400-339600,D353100-353200,A243000,A341400,C354200         @OS77835 00283191
*C341000,A610500                                               @OS77835 00283291
*C441600                                                       @OY14503 00283391
*D469100-469200                                                @OS77867 00283491
*C400000                                                       @OY14092 00283591
*C439720,439900                                                @OX17153 00283600
*A123000,567540                                                @OZ24185 00283700
*C567297                                                       @OZ24185 00283800
         SPACE 3                                                        00284022
*A124000                                                       @OY19438 00284111
*A567288,567297                                                @OY19438 00287111
*D123500                                                       @OY19438 00287611
* DUMMY APAR                                                   @OZ27328 00288111
.*                                                                      00288611
.*                  VERSION DATED 11/06/74                     @Z30X8IG 00289111
.*                                                                      00290108
.********************************************************************** 00293108
         AIF   ('&GEN' EQ 'MAXI' OR '&GEN' EQ 'MINI' OR '&GEN' EQ 'NTSO-00300020
               ' OR '&GEN' EQ 'VTAM').OK                         X03039 00400008
         MNOTE 12,'XXX IHB     -INVALID OPERAND.'                       00500020
         MEXIT                                                          00600020
.OK      ANOP                                                           00700020
         TITLE '&NAME     SEND SCHEDULER'                               00800020
&NAME    CSECT                                                          00900020
.L1      ANOP                                                           01000020
*                                                                     * 01100020
*********************************************************************** 01200020
*                                                                     * 01300020
*TITLE --  SEND SCHEDULER MODULE                                      * 01400020
*                                                                     * 01500020
         AIF   ('&GEN' NE 'VTAM').TAG0                           X03039 01502008
*  MODULE NAME = IEDIAQ (VTAM)                                   X03039 01504008
         AGO   .TAG3                                             X03039 01506008
.TAG0    ANOP                                                    X03039 01508008
         AIF   ('&GEN' NE 'MINI').TAG1                                  01510005
*  MODULE NAME = IGG019Q6 (MINI)                                      * 01520005
         AGO   .TAG3                                                    01530005
.TAG1    AIF   ('&GEN' NE 'NTSO').TAG2                                  01540005
*  MODULE NAME = IGG019Q7 (NTSO)                                      * 01550005
         AGO   .TAG3                                                    01560005
.TAG2    ANOP                                                           01570005
*  MODULE NAME = IGG019R4 (MAXI)                                      * 01580005
.TAG3    ANOP                                                           01590005
*                                                                     * 01600005
*  DESCRIPTIVE NAME = SEND SCHEDULER                                  * 01610005
*                                                                     * 01620005
*  COPYRIGHT = 'NONE'                                                 * 01630005
*                                                                     * 01640005
*STATUS -- CHANGE LEVEL 8                                      @Z30X8IG 01650008
*                                                                     * 01700020
         AIF   ('&GEN' EQ 'VTAM').VFUNC                          X03039 01750008
*FUNCTION -- TO SCHEDULE A SENDING OPERATION AND TO FIND THE ADDRESS  * 01800020
*   OF THE DESTINATION LCB WHEN A MESSAGE IS POSTED TO A DESTINATION  * 01900020
*   QUEUE OR WHEN A DIAL QCB COMES OUT OF A TIME DELAY.               * 02000020
         AGO   .ENTPNT                                           X03039 02010008
.VFUNC   ANOP                                                    X03039 02020008
*FUNCTION -- TO SCHEDULE A SENDING OPERATION AND TO REQUEST A    X03039 02030008
*   LOGON IF NEEDED TO PERFORM THE SEND OPERATION.               X03039 02040008
.ENTPNT  ANOP                                                    X03039 02050008
*                                                                     * 02100020
*ENTRY POINTS --                                                      * 02200020
*   FIRST EXECUTABLE INSTRUCTION                                      * 02300020
*                                                                     * 02400020
         AIF   ('&GEN' EQ 'VTAM').VENTPT2                        X03039 02450008
*   'LCBSCAN'  WHEN CALLED BY DESTINATION ASSIGNMENT OR BY THE SEND   * 02500020
*   SCHEDULER (INITIATE MODE AND FOR A DIAL QCB).                     * 02600020
         AGO   .INPUT                                            X03039 02610008
.VENTPT2 ANOP                                                    X03039 02620008
*   'LCBSCAN' WHEN CALLED BY DESTINATION ASSIGNMENT, THE TIME    X03039 02630008
*   DELAY SUBTASK, OR THE SEND SCHEDULER ITSELF.                 X03039 02640008
.INPUT   ANOP                                                    X03039 02650008
*                                                                     * 02700020
*INPUT --                                                             * 02800020
*   WHEN ACTIVATED BY THE DISPATCHER -                                * 02900020
*   R1 POINTS TO BUFFER, LCB OR QCB                                   * 03000020
*   R11  DISPATCHER BASE                                              * 03100020
*   R13  ADDRESS OF AVTSAVE2                                          * 03200020
*   R15  ENTRY POINT ADDRESS                                          * 03300020
*   'LCBSCAN' -                                                       * 03400020
*   R7  ADDRESS OF QCB                                                * 03500020
*   R13  ADDRESS OF AVTSAVE2                                          * 03600020
*   R14  RETURN ADDRESS                                               * 03700020
*   R15  ADDRESS OF LCBSCAN                                           * 03800020
*                                                                     * 03900020
*OUTPUT --                                                            * 04000020
*   WHEN ACTIVATED BY THE DISPATCHER                                  * 04100020
*   R11  ADDRESS OF DISPATCHER                                        * 04200020
*   R13  ADDRESS OF AVTSAVE2                                          * 04300020
*                                                                     * 04400020
*   'LCBSCAN' -                                                       * 04500020
*   R13  ADDRESS OF AVTSAVE2                                          * 04600020
*   R14  RETURN ADDRESS                                               * 04700020
*                                                                     * 04800020
*EXITS-NORMAL --                                                      * 04900020
*   WHEN CALLED BY DISPATCHER                                         * 05000020
*   R13  ADDRESS OF AVTSAVE2                                          * 05100020
*   R11  DISPATCHER BASE                                              * 05200020
*   RETURN IS MADE ON R11 WITH AN OFFSET TO HAVE THE DISPATCHER       * 05300020
*   PERFORM THE DESIRED FUNCTION.                                     * 05400020
*                                                                     * 05500020
*   'LCBSCAN'                                                         * 05600020
*   R11  DISPATCHER BASE                                              * 05700020
*   R13  ADDRESS OF AVTSAVE2                                          * 05800020
*   R14  RETURN ADDRESS                                               * 05900020
*   BR  R14                                                           * 06000020
*                                                                     * 06100020
*EXTERNAL ROUTINES --                                                 * 06200020
*   'IEDQTNT' - TO CONVERT A TWO BYTE TNT OFFSET TO TERMINAL ENTRY    * 06300020
*   ADDRESS                                                           * 06400020
*                                                                     * 06500020
         AIF   ('&GEN' EQ 'VTAM').VEXTRTN                        X03039 06550008
*   'IOHALT' MACRO - TO HALT AN ENABLE OR PREPARE COMMAND IN          * 06600020
         AGO   .EXITS                                            X03039 06610008
.VEXTRTN ANOP                                                    X03039 06620008
*   'IEDQHG01' - TO PUT THE QCB ON THE TIME DELAY QUEUE WHEN     X03039 06630008
*   MSGLIMIT IS REACHED ON OUTPUT.                               X03039 06640008
*                                                                X03039 06650008
*   'IEDIAF2' - TO ISSUE A RESET CONDITIONAL.                    X03039 06660008
.EXITS   ANOP                                                    X03039 06670008
*                                                                     * 06700020
*EXITS-ERROR -- NONE                                                  * 06800020
*                                                                     * 06900020
*TABLES/WORK AREAS --VARIOUS CONTROL BLOCKS EXPANDED BY MACROS        * 07000020
*   TAVTD                                                             * 07100020
*   TCCWD                                                             * 07200020
*   DCBD                                                              * 07300020
*   TDEBD                                                             * 07400020
*   TLCBD                                                             * 07500020
*   TPRFD                                                             * 07600020
*   TQCBD                                                             * 07700020
*   TSCBD                                                             * 07800020
*   TSTCBD                                                            * 07900020
*   TTRMD                                                             * 08000020
*   TTSID                                                      @Z30X8IR 08050008
*                                                                     * 08100020
*ATTRIBUTES -- RE-USABLE, REFRESHABLE, ENABLED, PROBLEM PROGRAM MODE  * 08200020
*                                                                     * 08300020
*NOTES -- THE OPERATION OF THIS MODULE DOES NOT DEPEND UPON A         * 08400020
*   PARTICUALR INTERNAL REPRESENTATION OF THE EXTERNAL CHARACTER      * 08500020
*   SET.                                                              * 08600020
*                                                                     * 08700020
*   ROUTINES CALLING THE LCBSCAN ROUTINE EXPECT THE OFFSET TO    X03039 08800008
*   LCBSCAN ALWAYS TO BE THE FIRST TWO BYTES OF THE SEND         X03039 08900008
*   SCHEDULER.                                                   X03039 09000008
*                                                                     * 09200020
*********************************************************************** 09300020
         EJECT                                                          09400020
         DC    AL2(LCBSCAN-&NAME) .     USED BY OPEN TO                 09500020
*                                         SET ADDRESS IN AVT            09600020
*                                 REGISTER EQUATES                      09700020
         SPACE 1                                                        09800020
         AIF   ('&GEN' NE 'VTAM').REG0                         @Z30X8IR 09820008
RSELECT  EQU   0                  IEDAYG ENTRY PNT INDEX REG   @Z30X8IR 09840008
.REG0    ANOP                                                  @Z30X8IR 09860008
R0       EQU   0                  FLAG REG                              09900020
RTEMP    EQU   1                        WORK REGISTER                   10000020
RWORK    EQU   2                        WORK REGISTER                   10100020
         AIF   ('&GEN' NE 'VTAM').EQRSTCB                        X03039 10120008
RQCBP    EQU   2                        QCB PREFIX REGISTER      X03039 10130008
RSCB     EQU   3                        SCB REGISTER FOR LCBSCAN X03039 10140008
RRTN     EQU   3                  RETURN REG FOR IEDAYG        @Z30X8IR 10150008
.EQRSTCB ANOP                                                    X03039 10160008
RSTCB    EQU   3                  STCB BASE                             10200020
RLCB     EQU   4                  LCB BASE                              10300020
R5       EQU   5                        WORK REGISTER                   10400020
R6       EQU   6                                                    TSO 10500020
RQCB     EQU   7                  QCB ADDR                              10600020
RHOLD    EQU   8                  FIRST LCB SCANNED FOR AVAILABLE       10700020
RLAST    EQU   9                  COUNT OF LCB'S TO SCAN                10800020
RDCB     EQU   10                 DCB BASE                              10900020
RSUPBASE EQU   11                 DISPATCHER BASE REG                   11000020
RBASE    EQU   12                 SUBTASK BASE REG                      11100020
R13      EQU   13                 SAVE AREA ADDR (AVTSAVE2)             11200020
R14      EQU   14                 RETURN ADDR REG                       11300020
R15      EQU   15                 ENTRY BASE REG                        11400020
CLEAR0F  EQU   X'0F'                                             S22025 11450022
         SPACE 1                                                        11500020
         SPACE 2                                                        11600020
         USING IEDQSTCB,RSTCB                                           11700020
         USING IEDQLCB,RLCB                                             11800020
         USING IEDQQCB,RQCB                                             11900020
         USING IHADCB,RDCB                                              12000020
         USING IEDQDISP,RSUPBASE                                        12100020
         USING AVTSAVE2,R13                                             12200020
         USING *,R15                    TEMPORARY USING          Y05330 12300005
         BAL   RBASE,ID                 BYPASS ID / SET BASE     Y05330 12400005
TAG      EQU   *                                               @OY19438 12450011
         USING *,RBASE                  SET NEW USING            Y05330 12500005
         DROP  R15                                               Y05330 12600005
         SPACE 1                                                 Y05330 12700005
&NAME    IEDHJN                                                         12800005
ID       DS    0H                                                Y05330 12900005
         LA    RSTCB,IEDQSTCB     ZERO HI-ORDER BYTE                    13000020
         LA    RQCB,QCBSTVTO-IEDQQCB GET QCB'S STCB OFFSET              13100020
         LCR   RQCB,RQCB          SET NEGATIVE                          13200020
         AR    RQCB,RSTCB         BACK UP TO QCB BASE                   13300020
         SPACE 2                                                        13400020
*** ANALYZE THE PASSED ELEMENT.  IT MIGHT BE:                           13500020
*        1. BUFFER (+8 IS A 'TIC' COMMAND CODE)                         13600020
*             IF END OF MESSAGE, SEARCH FOR AN AVAILABLE LINE ON SHICH  13700020
*             TO SEND.                                                  13800020
*        2. LCB (+8 IS THE RECEIVE SCHEDULER'S STCBVTO)                 13900020
*             LOOK FOR THE MESSAGE TO SEND, AND TELL DISK ROUTINES TO   14000020
*             START READING MESSAGE.                                    14100020
         AIF   ('&GEN' EQ 'MINI').L5                                    14200020
*        3. QCB (+8 IS THE SEND SCHEDULER'S STCBVTO)                    14300020
*             SEND TIME DELAY HAS JUST EXPIRED.  LOOK FOR AN AVAILABLE  14400020
*             LINE ON WHICH TO CONTACT THE DIAL TERMINAL.               14500020
         SPACE 1                                                        14600020
         AIF   ('&GEN' EQ 'VTAM').VTAMVTO                        X03039 14650008
         CLI   PRFTIC-IEDQPRF(RTEMP),DSPSNDSC IS THIS A QCB?        TSO 14700020
         AGO   .QCBBR                                            X03039 14720008
.VTAMVTO ANOP                                                    X03039 14740008
         CLI   PRFTIC-IEDQPRF(RTEMP),DSPVSSCH IS THIS A QCB      X03039 14760008
.QCBBR   ANOP                                                    X03039 14780008
         BE    QCBTSO                   BRANCH IF IT IS A QCB       TSO 14800020
.L5      ANOP                                                           14900020
         CLI   LCBPRI-IEDQLCB(RTEMP),PRILNFRE  LCB                      15000020
         BE    SENDSCH                  YES                             15100020
         L     RLCB,PRFLCB-1-IEDQPRF(,RTEMP) LCB ADDRESS                15200020
         TM    LCBSTAT1,LCBINITN        INITIATE MODE                   15300020
         BZ    EXIT                     NO                              15400020
         LA    R15,LCBSCAN              ADDRESSABILITY                  15500020
         ST    RQCB,AVTDOUBL            SAVE QCB ADDRES                 15600020
         AIF   ('&GEN' EQ 'VTAM').STCBTSO                               15610091
         L     R6,QCBSLINK-1                                   @OZ09912 15620091
         LR    R5,RTEMP                 SAVE VALUE             @OZ09912 15630091
         AGO   .STCB2                                          @OZ09912 15640091
.STCBTSO ANOP                                                  @OZ09912 15650091
         ST    RTEMP,AVTDOUBL+4         SAVE BUFFER ADDRESS    @AS09778 15700009
.STCB2   ANOP                                                  @OZ09912 15800091
         BALR  R14,R15                  LINK TO FIND LCB                15900020
         L     RQCB,AVTDOUBL            SET  QCB ADDRES                 16000020
         AIF   ('&GEN' EQ 'VTAM').STCB3                        @OZ09912 16010091
         LR    RTEMP,R5                 RESTORE VALUE          @OZ09912 16020091
         LR    RSTCB,R6                 RESTORE VALUE          @OZ09912 16030091
         AGO   .STCB4                                          @OZ09912 16040091
.STCB3   ANOP                                                  @OZ09912 16050091
         L     RTEMP,AVTDOUBL+4         RESTORE BUFFER ADDR    @AS09778 16100009
         L     RSTCB,QCBSTCHN-1         1ST STCB ON DEST QCB   @AS09778 16120009
         CLI   0(RSTCB),DSPMCPL6        IS IT IEDQHM'S STCB    @AS09778 16140009
         BNH   FOUNDHM                  BRANCH IF YES          @OZ09912 16160091
         L     RSTCB,QCBSLINK-1         NO, GET HM'S STCB      @AS09778 16180009
*                                       FROM STCB LINK FIELD   @AS09778 16200009
FOUNDHM  EQU   *                                               @AS09778 16220009
.STCB4   ANOP                                                  @OZ09912 16260091
         B     DSPBYPAS                 DISPATCH NEXT SSTCB             16300020
         AIF   ('&GEN' EQ 'MINI').L7                                    16400020
QCBTSO   LA    R15,LCBSCAN              ESTABLISH ADDRESSABILITY    TSO 16500020
         LA    R14,DSPDISP              SET EXIT FROM SUBROUTINE        16600020
        AIF   ('&GEN' EQ 'NTSO').L6                                     16700020
         TM    QCBFLAG,QCBTSSES         IS THIS FOR TIME SHARING?   TSO 16800020
         BZ    SETEXIT                  BRANCH IF NO                    16900020
         NI    QCBTSOF2,X'FF'-QCBPOSTO  TURN OFF QCB POSTED BIT     TSO 17000020
         B     TSO1                                                 TSO 17100020
.L6      ANOP                                                           17200020
         SPACE 1                                                        17300020
*** A QCB QPOST'ED TO ITSELF IS ASSUMED                                 17400020
         SPACE 1                                                        17500020
SETEXIT  EQU   *                                                        17600020
         EJECT                                                          17900020
.L7      ANOP                                                           18000020
         USING *,R15                                                    18100020
LCBSCAN  EQU   *                                                        18200020
         LA    RQCB,0(,RQCB)            LCRER HI ORDER BYTE FOR COM     18300020
         TM    QCBDSFLG,QCBHELD         REUS USING QCB ?       @SA70324 18330061
         BOR   R14                      YES, EXIT              @SA70324 18360061
         AIF   ('&GEN' EQ 'MINI' OR '&GEN' EQ 'NTSO').L8                18400020
         TM    QCBDSFLG,QCBDISK+QCBCORE TIME-SHARING QUEUES?        TSO 18500020
         BCR   8,R14                    YES. RETURN TO CPB INIT     TSO 18600020
         TM    QCBFLAG,QCBTSSES .      QCB IN TSO SESSION        S22029 18630022
         BCR   7,R14 .                 YES RETURN TO CPB INIT    S22029 18660022
         SPACE                                                          18700020
TSO1     EQU   *                                                    TSO 18800020
.L8      ANOP                                                           18900020
         AIF   ('&GEN' EQ 'VTAM').VSCAN                          X03039 18950008
         L     RDCB,QCBDCBAD-1    GET DCB ADDR                          19000020
         TM    DCBOFLGS,OPEN      IS DCB OPEN                           19100020
         BCR   8,R14                    NO EXIT                         19200020
RETRY    EQU   *                                                        19300020