         MACRO                                                          00050002
&NAME    STABUILD &FLAG=,                                              X00100002
               &LIST=,                                                 X00150002
               &LISTNUM=,                                              X00200002
               &ADDR=,                                                 X00250002
               &CODE=,                                                 X00300002
               &RTN=,                                                  X00350002
               &NUM=,                                                  X00400002
               &TYPE=A,                                                X00450002
               &MF=                                                     00500002
         GBLA  &$PSEUDO(5)                                              00550002
         LCLA  &FNUM                                                    00600002
         LCLA  &FNUM1,&INCR                                             00650002
         LCLB  &F(8)                                                    00700002
.*                                                                      00750002
.* THIS MACRO BUILDS THE CONTROL BLOCK THAT IKJEHSIR WILL EXAMINE       00800002
.* TO DETERMINE WHAT SPECIFIC ABENDS AND/OR WHAT TYPES OF ABENDS        00850002
.* A CP WANTS TO HANDLE.                                                00900002
.*                                                                      00950002
.*  &FLAG IS THE FLAG(S) TO SET IN THE BLOCK, CAN BE ONE OR MORE        01000002
.*     OF THE FOLLOWING:                                                01050002
.*        ONE  SAYS ONLY ONE ABEND CODE TO BE HANDLED BY &RTN           01100002
.*        MUL  SAYS MULTIPLE ABENDS TO BE HANDLED BY &RTN, ALSO         01150002
.*             IMPLIES THAT &LIST EXISTS                                01200002
.*        ALL  SAYS THAT &RTN WILL HANDLE ALL ABEND CODES NOT           01250002
.*             SPECIFICALLY CALLED OUT BY A ONE OR MUL ENTRY            01300002
.*        NMSG TELLS IKJEHSIR THAT THE CP WANTS TO PUT OUT ITS          01350002
.*             OWN MESSAGE, AND THAT IKJEHSIR SHOULD NOT PUT            01400002
.*             OUT THE STANDARD MESSAGE.                                01450002
.*        USER SAYS THAT THE CODES ARE USER ABENDS                      01500002
.*        END  THIS SIGNIFIES THE END OF A TYPE OF CODE ENTRY,          01550002
.*             EITHER USER OR SYSTEM ABEND CODES                        01600002
.*  &LIST THIS IS THE ADDRESS OF THE AREA FOR A LIST OF CODES TO        01650002
.*        BE STORED IN BY THIS MACRO ON AN MF=E.  THE CODES (FROM       01700002
.*        &CODE) WILL BE STORED IN THE ORDER THAT THEY APPEAR IN        01750002
.*        THE &CODE=( ) PARAMETER                                       01800002
.*  &LISTNUM  ONLY VALID FOR AN MF=L FORM.  THIS IS THE NUMBER OF       01850002
.*        CODES THAT AN MF=E FORM WILL FILL-IN IN AN &LIST              01900002
.*  &ADDR  THIS IS THE ADDRESS OF THE MF=L TO BE FILLED IN BY THE       01950002
.*        MF=E FORM OF THE MACRO.                                       02000002
.*  &CODE  THIS IS THE CODE OR CODES THAT &RTN WILL HANDLE              02050002
.*        CANNOT BE IN A REGISTER.                                      02100002
.*  &RTN  THIS IS THE ADDRESS OF THE ROUTINE THAT WILL HANDLE THE       02150002
.*        CODE OR LIST OF CODES GIVEN IN THE &CODE= PARAMETER           02200002
.*  &NUM  IS VALID ONLY FOR MF=L.  THIS IS USED BY THE 1ST              02250002
.*        STABUILD MF=L TO DETERMINE THE NUMBER OF STABUILDS            02300002
.*        THAT WILL BE USED IN THIS ASSEMBLY.  IT SETS UP AN            02350002
.*        ADDRESS REFERENCE POINT FOR THE &LIST PARAMETERS OF           02400002
.*        OTHER STABUILD MACROS.                                        02450002
.*  &TYPE  TYPE OF MACRO EXPANSION FOR MF=E                             02500002
.*        A SAYS THAT NEW BLOCK IS BEING BUILT                          02550002
.*        C SAYS THAT OLD BLOCK IS BEING CHANGED                        02600002
.*                                                                      02650002
         AIF   (T'&NUM NE 'O').NUMIT                                    02700002
         AIF   ('&MF' EQ 'L').LISTFRM                                   02750002
.*                                                                      02800002
.*   EXECUTE FORM OF MACRO                                              02850002
.*                                                                      02900002
.TRYERS  AIF   ('&TYPE' EQ 'C').TYPEC  CHANGING A BLOCK                 02950002
         AIF   (T'&FLAG EQ 'O').NOFLAG                                  03000002
         AIF   (T'&ADDR EQ 'O').NOADDR                                  03050002
         AIF   (T'&RTN EQ 'O').NORTN                                    03100002
         AIF   (N'&CODE GE 2 AND T'&LIST EQ 'O').BAD                    03150002
.LOOP0   ANOP                                                           03200002
&FNUM    SETA  0                                                        03250002
&FNUM1   SETA  N'&FLAG                                                  03300002
.LOOP1   ANOP                                                           03350002
&FNUM    SETA  &FNUM+1                                                  03400002
         AIF   ('&FLAG(&FNUM)' NE 'ONE').LOOP2                          03450002
&F(8)    SETB  1                                                        03500002
.LOOP2   AIF   ('&FLAG(&FNUM)' NE 'MUL').LOOP3                          03550002
&F(7)    SETB  1                                                        03600002
.LOOP3   AIF   ('&FLAG(&FNUM)' NE 'ALL').LOOP4                          03650002
&F(6)    SETB  1                                                        03700002
.LOOP4   AIF   ('&FLAG(&FNUM)' NE 'USER').LOOP5                         03750002
&F(5)    SETB  1                                                        03800002
.LOOP5   AIF   ('&FLAG(&FNUM)' NE 'NMSG').LOOP6                         03850002
&F(4)    SETB 1                                                         03900002
.LOOP6   ANOP                                                           03950002
.LOOP7   ANOP                                                           04000002
.LOOP8   AIF   ('&FLAG(&FNUM)' NE 'END').LOOP9                          04050002
&F(1)    SETB  1                                                        04100002
.LOOP9   ANOP                                                           04150002
&FNUM1   SETA  &FNUM1-1                                                 04200002
         AIF   (&FNUM1 NE 0).LOOP1                                      04250002
         AIF   ('&MF' EQ 'L').MFL001 BYPASS ON MF=L                     04300002
         AIF   (&F(8)+&F(7)+&F(6) EQ 0).NONE                            04350002
         AIF   (&F(8)+&F(7)+&F(6) NE 1).EXC                             04400002
         AIF   ('&TYPE' EQ 'C').MFL001  BYPASS ON TYPE=C                04450002
         AIF   (&F(7) EQ 1 AND T'&LIST EQ 'O').BAD2                     04500002
         AIF   (&F(6) NE 1 AND T'&CODE EQ 'O').NOCODE                   04550002
.MFL001  SPACE 1                                                        04600002
&FNUM SETA &F(1)*128+&F(2)*64+&F(3)*32+&F(4)*16+&F(5)*8+&F(6)*4+&F(7)*2+04650002
               +&F(8)                                                   04700002
.*                                                                      04750002
.*  SEE IF WE HAVE TO GO ON WITH MF=L PROCESSING                        04800002
.*                                                                      04850002
         AIF   ('&MF' EQ 'L').MFL                                       04900002
         AIF   ('&TYPE' EQ 'C').TYPEC1  GO ON WITH TYPE=C               04950002
         AIF   (N'&CODE GE 2).LISTER                                    05000002
         AIF   ('&ADDR'(1,1) EQ '(').REGAD                              05050002
&NAME    MVI   &ADDR,&FNUM         STORE FLAG BYTE                      05100002
         AIF   (T'&CODE EQ 'O').ZERO                                    05150002
         AIF   ('&CODE'(1,1) EQ '(').REG1                               05200002
         LA    15,X'&CODE'         ABEND CODE                           05250002
         AGO   .STH15                                                   05300002
.ZERO    LA    15,0                CODE OMITTED                         05350002
.STH15   STH   15,&ADDR+2          STORE IT                             05400002
         AGO   .REG2                                                    05450002
.REG1    STH   &CODE(1),&ADDR+2    STORE ABEND CODE                     05500002
.REG2    AIF   ('&RTN'(1,1) EQ '(').REG3                                05550002
         LA    14,&RTN             RETRY ROUTINE ADDRESS                05600002
         ST    14,&ADDR+4          STORE IT                             05650002
         AGO   .END                                                     05700002
.REG3    ST    &RTN(1),&ADDR+4     STORE ROUTINE ADDRESS                05750002
.END     SPACE 1                                                        05800002
         MEXIT                                                          05850002
.REGAD   ANOP                                                           05900002
&NAME    MVI   0(&ADDR(1)),&FNUM   STORE FLAG BYTE                      05950002
         AIF   (T'&CODE EQ 'O').ZERO1                                   06000002
         AIF   ('&CODE'(1,1) EQ '(').REGAD1                             06050002
         LA    15,X'&CODE'         ABEND CODE                           06100002
         AGO   .STH15A                                                  06150002
.ZERO1   LA    15,0                CODE OMITTED                         06200002
.STH15A  STH   15,2(&ADDR(1))      STORE IT                             06250002
         AGO   .REGAD2                                                  06300002
.REGAD1  STH   &CODE(1),2(&ADDR(1))  STORE ABEND CODE                   06350002
.REGAD2  AIF   ('&RTN'(1,1) EQ '(').REGAD3                              06400002
         LA    14,&RTN             RETRY ROUTINE ADDRESS                06450002
         ST    14,4(&ADDR(1))      STORE IT                             06500002
         AGO   .END                                                     06550002
.REGAD3  ST    &RTN(1),4(&ADDR(1))  STORE ROUTINE ADDRESS               06600002
         AGO   .END                                                     06650002
.LISTER  ANOP                                                           06700002
         AIF   ('&ADDR'(1,1) EQ '(').LADR                               06750002
         AIF   ('&LIST'(1,1) EQ '(').LLIST                              06800002
&NAME    LA    14,&LIST            LIST OF CODES                        06850002
.ST14A   ST    14,&ADDR            STORE IT                             06900002
         MVI   &ADDR,&FNUM         STORE FLAG BYTE                      06950002
         AIF   ('&RTN'(1,1) EQ '(').LRTN                                07000002
         LA    15,&RTN             RETRY ROUTINE ADDRESS                07050002
         ST    15,&ADDR+4          STORE IT                             07100002
         AGO   .CODES                                                   07150002
.LADR    AIF   ('&LIST'(1,1) EQ '(').ALIST                              07200002
&NAME    LA    14,&LIST            LIST OF CODES                        07250002
.ST14    ST    14,0(&ADDR(1))      STORE IT                             07300002
         MVI   0(&ADDR(1)),&FNUM   STORE FLAG BYTE                      07350002
         AIF   ('&RTN'(1,1) EQ '(').ARTN                                07400002
         LA    15,&RTN             RETRY ROUTINE ADDRESS                07450002
         ST    15,4(&ADDR(1))      STORE IT                             07500002
         AGO   .CODES                                                   07550002
.LRTN    ST    &RTN(1),&ADDR+4     STORE ROUTINE ADDRESS                07600002
         AGO   .CODES                                                   07650002
.ALIST   ANOP                                                           07700002
&NAME    LR    14,&LIST(1)         LIST OF CODES                        07750002
         AGO   .ST14                                                    07800002
.ARTN    ST    &RTN(1),4(&ADDR(1))  STORE ROUTINE ADDRESS               07850002
         AGO   .CODES                                                   07900002
.LLIST   ANOP                                                           07950002
&NAME    LR    14,&LIST(1)         LIST OF CODES                        08000002
         AGO   .ST14A                                                   08050002
.*                                                                      08100002
.*      LOOP TO SET UP THE CODES                                        08150002
.*                                                                      08200002
.CODES   SPACE 1                                                        08250002
&FNUM    SETA  0        CLEAR COUNTER                                   08300002
&INCR    SETA  0           CLEAR INCREMENT                              08350002
&FNUM1   SETA  N'&CODE      GET NUMBER OF CODES                         08400002
.LOOPS   ANOP               ANY LABEL                                   08450002
&FNUM    SETA  &FNUM+1     UP POINTER BY ONE                            08500002
         LA    15,X'&CODE(&FNUM)'  ABEND CODE                           08550002
         STH   15,&INCR.(14)    STORE IN LIST                           08600002
&FNUM1   SETA  &FNUM1-1 BACK UP ONE                                     08650002
         AIF   (&FNUM1 NE 0).LOOPS1                                     08700002
         OI    &INCR.(14),X'80'         END OF LIST                     08750002
         AGO   .END                                                     08800002
.LOOPS1  ANOP                                                           08850002
&INCR    SETA  &INCR+2            UP POINTER                            08900002
         AGO   .LOOPS                                                   08950002
.*                                                                      09000002
.*       THIS IS THE TYPE=C PROCESSING                                  09050002
.*                                                                      09100002
.TYPEC   AIF   (T'&ADDR EQ 'O').NOADDR NEED AN ADDRESS                  09150002
         AIF   (N'&CODE GE 2 AND T'&LIST EQ 'O').BAD NEED A LIST        09200002
         AIF   (T'&FLAG NE 'O').LOOP0  CHECK FLAG SETTING               09250002
.TYPEC1  AIF   ('&ADDR'(1,1) EQ '(').REGTC  ADDR IN REG                 09300002
         AIF   (N'&CODE GE 2).TYPECL                                    09350002
         AIF   (T'&FLAG NE 'O' AND T'&CODE EQ 'O').TYPECF  FLAG ONLY    09400002
         AIF   (T'&CODE NE 'O' AND T'&FLAG EQ 'O').TYPECC CODE ONLY     09450002
         AIF   (T'&CODE EQ 'O' AND T'&FLAG EQ 'O').TYPECR  BOTH OMITTED 09500002
&NAME    MVI   &ADDR,&FNUM         STORE FLAG BYTE                      09550002
         LA    15,X'&CODE'         ABEND CODE                           09600002
         STH   15,&ADDR+2          STORE IT                             09650002
         AGO   .TYPECR1            CHECK ROUTINE                        09700002
.TYPECF  ANOP                                                           09750002
&NAME    MVI   &ADDR,&FNUM         STORE NEW FLAG                       09800002
         AGO   .TYPECR1                                                 09850002
.TYPECC  ANOP                                                           09900002
&NAME    LA    15,X'&CODE'         NEW ABEND CODE                       09950002
         STH   15,&ADDR+2          STORE IT                             10000002
         AGO   .TYPECR1                                                 10050002
.TYPECR  AIF   (T'&RTN EQ 'O').TYPCLST  SEE IF THER IS A LIST           10100002
         AIF   ('&RTN'(1,1) EQ '(').TYPECRR  IN A REG                   10150002
&NAME    LA    15,&RTN             NEW ROUTINE                          10200002
         ST    15,&ADDR+4          STORE IT                             10250002
         AGO   .END                                                     10300002
.TYPECRR ANOP                                                           10350002
&NAME    ST    &RTN(1),&ADDR+4     STORE NEW ROUTINE                    10400002
         AGO   .END                                                     10450002
.TYPECR1 AIF   (T'&RTN EQ 'O').END                                      10500002
         AIF   ('&RTN'(1,1) EQ '(').TYPECR2                             10550002
         LA    15,&RTN             NEW ROUTINE                          10600002
         ST    15,&ADDR+4          STORE IT                             10650002
         AGO   .END                                                     10700002
.TYPECR2 ST    &RTN(1),&ADDR+4     STORE NEW ROUTINE                    10750002
         AGO   .END                                                     10800002
.REGTC   AIF   (N'&CODE GE 2).TYPECLR                                   10850002
         AIF   (T'&FLAG NE 'O' AND T'&CODE EQ 'O').TYPCRF               10900002
         AIF   (T'&CODE NE 'O' AND T'&FLAG EQ 'O').TYPCRC               10950002
         AIF   (T'&CODE EQ 'O' AND T'&FLAG EQ 'O').TYPCRR               11000002
&NAME    MVI   0(&ADDR(1)),&FNUM   STORE FLAG BYTE                      11050002
         LA    15,X'&CODE'         NEW ABEND CODE                       11100002
         STH   15,2(&ADDR(1))      STORE IT                             11150002
         AGO   .TYPCR1                                                  11200002
.TYPCRF  ANOP                                                           11250002
&NAME    MVI   0(&ADDR(1)),&FNUM   STORE NEW FLAG BYTE                  11300002
         AGO   .TYPCR1                                                  11350002
.TYPCRC  ANOP                                                           11400002
&NAME    LA    15,X'&CODE'         NEW ABEND CODE                       11450002
         STH   15,2(&ADDR(1))      STORE IT                             11500002
         AGO   .TYPCR1                                                  11550002
.TYPCRR  AIF   (T'&RTN EQ 'O').WHY                                      11600002
         AIF   ('&RTN'(1,1) EQ '(').TYPCRRR                             11650002
&NAME    LA    15,&RTN             NEW ROUTINE                          11700002
         ST    15,4(&ADDR(1))      STORE IT                             11750002
         AGO   .END                                                     11800002
.TYPCRRR ANOP                                                           11850002
&NAME    ST    &RTN(1),4(&ADDR(1)) STORE NEW ROUTINE                    11900002
         AGO   .END                                                     11950002
.TYPCR1  AIF   (T'&RTN EQ 'O').END                                      12000002
         AIF   ('&RTN'(1,1) EQ '(').TYPCRR2                             12050002
         LA    15,&RTN             NEW ROUTINE                          12100002
         ST    15,4(&ADDR(1))      STORE IT                             12150002
         AGO   .END                                                     12200002
.TYPCRR2 ST    &RTN(1),4(&ADDR(1)) STORE NEW ROUTINE                    12250002
         AGO   .END                                                     12300002
.TYPECL  AIF   ('&LIST'(1,1) EQ '(').TYPECL1                            12350002
         AIF   (T'&FLAG EQ 'O').TYPCL2                                  12400002
&NAME    LA    14,&LIST            LIST OF CODES                        12450002
.TYPCS14 ST    14,&ADDR            STORE IT                             12500002
         MVI   &ADDR,&FNUM         STORE FLAG BYTE                      12550002
         AIF   (T'&CODE EQ 'O').END   OUT IF NO CODE                    12600002
         AGO   .CODES                                                   12650002
.TYPECL1 AIF   (T'&FLAG EQ 'O').TYPCL3                                  12700002
&NAME    LR    14,&LIST(1)         LIST OF CODES                        12750002
         AGO   .TYPCS14                                                 12800002
.TYPCL2  ANOP                                                           12850002
&NAME    LA    14,&LIST            LIST OF CODES                        12900002
.TYPCI15 IC    15,&ADDR            SAVE FLAG BYTE                       12950002
         ST    14,&ADDR            STORE LIST ADDRESS                   13000002
         STC   15,&ADDR            RESTORE FLAG BYTE                    13050002
         AIF   (T'&CODE EQ 'O').END  OUT IF NO CODE                     13100002
         AGO   .CODES                                                   13150002
.TYPCL3  ANOP                                                           13200002
&NAME    LR    14,&LIST(1)         LIST ADDRESS                         13250002
         AGO   .TYPCI15                                                 13300002
.TYPECLR AIF   ('&LIST'(1,1) EQ '(').TYPRCL                             13350002
         AIF   (T'&FLAG EQ 'O').TYPRCL1                                 13400002
&NAME    LA    14,&LIST            LIST OF CODES                        13450002
.TYPRS14 ST    14,0(&ADDR(1))      STORE IT                             13500002
         MVI   0(&ADDR(1)),&FNUM   STORE FLAG BYTE                      13550002
         AIF   (T'&CODE EQ 'O').END  OUT IF NO CODE                     13600002
         AGO   .CODES                                                   13650002
.TYPRCL  AIF   (T'&FLAG EQ 'O').TYPRCL3                                 13700002
&NAME    LR    14,&LIST(1)         LIST OF CODES                        13750002
         AGO   .TYPRS14                                                 13800002
.TYPRCL1 ANOP                                                           13850002
&NAME    LA    14,&LIST            LIST OF CODES                        13900002
.TYPRI15 IC    15,0(&ADDR(1))      SAVE FLAG BYTE                       13950002
         ST    14,0(&ADDR(1))      STORE CODE ADDRESS                   14000002
         STC   15,0(&ADDR(1))      RESTORE FLAG BYTE                    14050002
         AIF   (T'&CODE EQ 'O').END  OUT IF NO CODE                     14100002
         AGO   .CODES                                                   14150002
.TYPRCL3 ANOP                                                           14200002
&NAME    LR    14,&LIST(1)         ADDRESS OF CODES                     14250002
         AGO   .TYPRI15                                                 14300002
.TYPCLST AIF   (T'&LIST EQ 'O').WHY  NOTHING SPECIFIED                  14350002
         AGO   .TYPECL             ONWARD                               14400002
.*                                                                      14450002
.*          LIST FORM OF MACRO                                          14500002
.*                                                                      14550002
.* FIRST CHECK TO SEE IF THERE ARE ANY FLAGS                            14600002
.*                                                                      14650002
.LISTFRM AIF   (T'&FLAG NE 'O').LOOP0                                   14700002
&FNUM    SETA  0                                                        14750002
         AIF   (T'&NAME EQ 'O' AND T'&ADDR EQ 'O').BOTH                 14800002
         SPACE 1                                                        14850002
.MFL     AIF   (T'&LIST EQ 'O' AND N'&CODE GE 2).BAD                    14900002
         AIF   (T'&LISTNUM NE 'O' AND T'&LIST EQ 'O').NOLIST1           14950002
         AIF   (T'&CODE EQ 'O' AND T'&LIST NE 'O' AND T'&LISTNUM EQ 'O')15000002
               ).NOLIST2                                                15050002
         AIF   (T'&NAME EQ 'O' AND T'&ADDR EQ 'O').BOTH                 15100002
         AIF   (T'&NAME NE 'O').NOADRS  BYPASS                          15150002
         AIF   (T'&ADDR EQ 'O').NOADRS     IS THERE AN ADDRESS          15200002
         AIF   ('&ADDR'(1,1) EQ '(').BADADR     CAN'T DO THAT           15250002
.NOADRS  AIF   (T'&LIST EQ 'O').NOLIST     IS THERE A LIST              15300002
         AIF   ('&LIST'(1,1) EQ '(').BADLIST     CAN'T DO THAT EITHER   15350002
.NOLIST  ANOP                                                           15400002
         AIF   (&$PSEUDO(2) EQ 0).FIRST1   FIRST TIME                   15450002
         ORG   $STAELST+&$PSEUDO(2)*8  ORG AT NEXT SLOT                 15500002
         AGO   .FIRST2                                                  15550002
.FIRST1  ORG   $STAELST          ORG AT FIRST SLOT                      15600002
.FIRST2  ANOP                                                           15650002
&$PSEUDO(2) SETA &$PSEUDO(2)+1                                          15700002
         SPACE 1                                                        15750002
.*                                                                      15800002
.*        THE NAME PARAMETER OVERRIDES THE ADDR PARAMETER               15850002
.*                                                                      15900002
         AIF   (T'&ADDR EQ 'O').NAME                                    15950002
         AIF   (T'&NAME NE 'O').NAME                                    16000002
&ADDR    DS    0F                  NAME THIS SECTION                    16050002
         AGO   .DCNUM                                                   16100002
.NAME    ANOP                                                           16150002
&NAME    DS    0F                  NAME THIS SECTION                    16200002
.DCNUM   DC    AL1(&FNUM)          FLAG BYTE                            16250002
         AIF   (N'&CODE GE 2).LISTMFL                                   16300002
         AIF   (T'&LIST NE 'O').LISTMFL                                 16350002
         AIF   (T'&CODE EQ 'O').CODE0S                                  16400002
         DC    AL3(X'&CODE')       ABEND CODE                           16450002
         AGO   .RTN0S                                                   16500002
.CODE0S  DC    AL3(0)             ABEND CODE                            16550002
.RTN0S   AIF   (T'&RTN EQ 'O').RTN1S                                    16600002
         DC    A(&RTN)             RETRY ROUTINE ADDRESS                16650002
         AGO  .LSTEND                                                   16700002
.RTN1S   DC    A(0)               RETRY ROUTINE ADDRESS                 16750002
         AGO   .LSTEND                                                  16800002
.NUMIT   SPACE 1                                                        16850002
         AIF   ('&MF' NE 'L').TRYERS                                    16900002
         AIF   (&$PSEUDO(4) EQ 1).NUMITE                                16950002
&$PSEUDO(4) SETA 1                                                      17000002
$STAELST DS    0F                  NAME THE POINTER ENTRIES             17050002
         SPACE 1                                                        17100002
         ORG   $STAELST+&NUM*8     ORG TO END OF ENTRIES                17150002
         SPACE 1                                                        17200002
$STAEEND DS    0F                 NAME THE END OF ENTRIES               17250002
.NUMITE  ANOP                                                           17300002
         AIF   (T'&FLAG NE 'O' OR T'&LIST NE 'O' OR T'&ADDR NE 'O' OR T'17350002
               '&CODE NE 'O' OR T'&RTN NE 'O' OR T'&LISTNUM NE 'O').LIST17400002
               TFRM                                                     17450002
         AGO   .LSTEND                                                  17500002
.LISTMFL DC    AL3(&LIST)          ADDRESS OF LIST                      17550002
         AIF   (T'&RTN EQ 'O').RTN2S                                    17600002
         DC    A(&RTN)             ADDRESS OF RETRY ROUTINE             17650002
         AGO   .RTN3S                                                   17700002
.RTN2S   DC    A(0)               RETRY ROUTINE ADDRESS                 17750002
.RTN3S   AIF   (&$PSEUDO(3) NE 0).BYPAS1                                17800002
         SPACE 1                                                        17850002
.MLORG   ORG   $STAEEND            ORG AT BOTTOM OF ENTRIES             17900002
         SPACE 1                                                        17950002
$STAECOD DS    0F                  NAME LIST OF CODES                   18000002
         AGO   .BYPAS2                                                  18050002
.BYPAS1  SPACE 1                                                        18100002
         ORG   $STAECOD+&$PSEUDO(3)*2  ORG AT NEXT SLOT                 18150002
.BYPAS2  SPACE 1                                                        18200002
&LIST    DS    0H                  NAME THIS LIST OF CODES              18250002