         MACRO                                                          00700000
&NAME  TCONV   &MF=,&TYPE=EH,&FROM=,&TO=,&COUNT=,&MAP=NO,&LSTNAME=,    X01400000
               &RET=                                                    02100000
.*                                                                      02800000
         GBLB  &EXECUTV,&E536454                                        03500000
         GBLB  &RCC .        SET TO 1 IF INTLZE WILL SUPPORT RCC        04200000
         LCLA  &FLAG,&ERROR,&KOUNT                                      04900000
         LCLB  &RCC1                                                    05600000
         LCLC  &F,&SIZE,&CHAR,&Z                                        06300000
.*                                                                      07000000
         AIF   ('&MAP' EQ 'YES').MAP1                                   07700000
         AIF   (T'&MF EQ 'O').STD                                       08400000
         AIF   ('&MF' EQ 'L' OR '&MF' EQ 'S').STD                       09100000
         AIF   ('&MF'(1,3) NE '(E,').MFERROR                            09800000
&CHAR    SETC  '&NAME'                                                  10500000
         AIF   ('&MF'(4,3) EQ '(1)').RG1                                11200000
         AIF   ('&MF'(4,1) EQ '(').RG2                                  11900000
&CHAR    LA    R1,&MF(2) .         ADDRESS OF PARAMETER LIST            12600000
&CHAR    SETC  ' '                                                      13300000
         AGO   .RG1                                                     14000000
.RG2     ANOP                                                           14700000
&KOUNT   SETA  K'&MF(2)-2                                               15400000
&F       SETC  '&MF(2)'(2,&KOUNT)                                       16100000
         AIF   ('&F'(1,1) EQ 'R').C724                                  16800000
&CHAR    LR    R1,R&F .            ADDRESS OF PARAMETER LIST            17500000
&CHAR    SETC  ' '                                                      18200000
         AGO   .RG1                                                     18900000
.C724    ANOP                                                           19600000
&CHAR    LR    R1,&F .             ADDRESS OF PARAMETER LIST            20300000
&CHAR    SETC  ' '                                                      21000000
.RG1     ANOP                                                           21700000
.RCC2    ANOP                                                           22400000
         AIF   ('&RCC' EQ '0').RCCA                                     23100000
         AIF   (T'&RET EQ 'O').RCCD                                     23800000
         AIF   ('&RET'(1,1) EQ '#').RCCB                                24500000
         AIF   ('&RET'(1,1) EQ '(').RCCC                                25200000
         MVC   $RETMASK,&RET .     SET RETURN CODE MASK                 25900000
         AGO   .RCCD                                                    26600000
.RCCE    ANOP                                                           27300000
         MVI   $RETMASK,#ALL-#RC0 . SET RETURN CODE MASK                28000000
         AGO   .RCCD                                                    28700000
.RCCB    ANOP                                                           29400000
         MVI   $RETMASK,#ALL-&RET . SET RETURN CODE MASK                30100000
         AGO   .RCCD                                                    30800000
.RCCC    ANOP                                                           31500000
         MVI   $RETMASK,#ALL-&RET(1) . SET RETURN CODE MASK             32200000
         AGO   .RCCD                                                    32900000
.RCCA    ANOP                                                           33600000
         AIF   (T'&RET EQ 'O').RCCD                                     34300000
         MNOTE 5,'RETURN CODE NOT SUPPORTED BY -INTLZE-'                35000000
.RCCD    ANOP                                                           35700000
         AIF   (&RCC1).RCC3                                             36400000
&CHAR    BAL   R14,#EXIT .         BRANCH TO LINKAGE SUBROUTINE         37100000
         MEXIT                                                          37800000
.MFERROR MNOTE 8,'MF VALUE (&MF) INCORRECT, NO STATEMENTS GENERATED.'   38500000
         MEXIT                                                          39200000
.STD     ANOP                                                           39900000
         AIF   (T'&FROM NE 'O').TEST3                                   40600000
&ERROR   SETA  1                                                        41300000
         MNOTE 8,'FROM ADDRESS MISSING.'                                42000000
.TEST3   AIF   (T'&TO NE 'O').TEST4                                     42700000
&ERROR   SETA  1                                                        43400000
         MNOTE 8,'TO ADDRESS MISSING.'                                  44100000
.TEST4   AIF   (T'&COUNT NE 'O').BEGIN                                  44800000
&ERROR   SETA  1                                                        45500000
         MNOTE 8,'COUNT MISSING.'                                       46200000
.BEGIN   ANOP                                                           46900000
         AIF   (&ERROR EQ 1).EXIT                                       47600000
         AIF   ('&TYPE' NE 'HE').CNVRT2                                 48300000
&FLAG    SETA  X'8000'                                                  49000000
.CNVRT2  ANOP                                                           49700000
         AIF   ('&MF' EQ 'L').LIST                                      50400000
&NAME    LA    R14,&FROM(1) . GET ADDR OF DATA                          51100000
         AIF   (N'&FROM EQ 1).CNVRT4                                    51800000
.TEST5   AIF   (&FROM(2) GE 2 OR &FROM(2) LE 14).CNVRT3                 52500000
&ERROR   SETA  1                                                        53200000
         MNOTE 8,'INVALID REG SPEC FOR FROM.'                           53900000
.CNVRT3  ANOP                                                           54600000
         AIF   (&ERROR EQ 1).EXIT                                       55300000
         AR    R14,&FROM(2) . INCREMENT ADDRESS                         56000000
.CNVRT4  ANOP                                                           56700000
         ST    R14,QWIE&SYSNDX . PLACE ADDR IN PARAMETER LIST           57400000
         LA    R14,&TO . GET OUTPUT DATA ADDR                           58100000
         ST    R14,QWIU&SYSNDX . OUTPUT DATA STORE                      58800000
         LA    R14,R&SYSNDX .     RETURN ADDRESS                        59500000
&RCC1    SETB  1                                                        60200000
         AGO   .RCC2                                                    60900000
.RCC3    ANOP                                                           61600000
         CNOP  0,4                                                      62300000
         BAL   R1,#EXIT .          BRANCH TO LINKAGE SUBROUTINE         63000000
&CHAR    SETC  '&LSTNAME'                                               63700000
         AGO   .STD1                                                    64400000
.LIST    ANOP                                                           65100000
&CHAR    SETC  '&NAME'                                                  65800000
         CNOP  0,4                                                      66500000
.STD1    ANOP                                                           67200000
         AIF   (&EXECUTV).OLTSEP                                        67900000
&CHAR    DC    B'00000000' .       CONTROL PROGRAM FLAGS                68600000
         AGO   .OLTSEP1                                                 69300000
.OLTSEP  ANOP                                                           70000000
&CHAR    DC    B'00000001' .       CONTROL PROGRAM FLAGS                70700000
.OLTSEP1 ANOP                                                           71400000
         DC    AL1(2) .            MACRO LEVEL                          72100000
         DC    CL2'41' .           MACRO ID                             72800000
QWIE&SYSNDX  DC  XL4'00000000' . ADDRESS OF DATA                        73500000
QWIU&SYSNDX  DC  XL4'00000000' .  OUTPUT DATA                           74200000
C&SYSNDX DC    AL2(&COUNT+&FLAG) . COUNT AND TYPE INFORMATION           74900000
**                                BIT 0 SET TO 1 INDICATES 'HE' TYPE.   75600000
         AIF   ('&MF' EQ 'L').EXIT                                      76300000
R&SYSNDX DS    0H .               RETURN ON HALFWORD BOUNDARY           77000000
         MEXIT                                                          77700000
.MAP1    ANOP                                                           78400000
CONVMAP  DSECT                                                          79100000
&Z       SETC  '$'                                                      79800000
         AIF   (&E536454).ZIPPER                                        80500000
           DC  XL1'0' .            CONTROL PROGRAM FLAGS                81200000
           DC  XL1'0' .            MACRO LEVEL                          81900000
           DC  XL2'0' .            MACRO ID                             82600000
         AGO   .ZIPPED                                                  83300000
.ZIPPER  ANOP                                                           84000000
&Z.CNVTRMG DC  XL1'0' .            CONTROL PROGRAM FLAGS                84700000
&Z.CNVLEVL DC  XL1'0' .            MACRO LEVEL                          85400000
&Z.CNVIDNT DC  XL2'0' .            MACRO ID                             86100000
.ZIPPED  ANOP                                                           86800000
&Z.CNVFROM DC  A(0) .              FROM ADDRESS                         87500000
&Z.CNVTO   DC  A(0) .              TO   ADDRESS                         88200000
&Z.CNVCT   DC  XL2'0' .            TYPE & COUNT                         88900000
.EXIT    MEND                                                           89600000
