         MACRO                                                          00050002
&NAME    VOLSTAT &DCB,&TFLAG                                            00100002
         LCLA  &CTR                                                     00150002
         LCLC  &FLAG,&REG                                               00200002
         AIF   ('&TFLAG' EQ 'E' OR '&TFLAG' EQ 'C').GO                  00250002
         IHBERMAC 180,TFLAG,C                                           00300002
&FLAG    SETC  'C'                                                      00350002
         AGO   .CHECK                                                   00400002
.GO      ANOP                                                           00450002
&FLAG    SETC  '&TFLAG'                                                 00500002
.CHECK   AIF   ('&DCB'(1,2) EQ '()' OR '&DCB' EQ '').ERR                00550002
&CTR     SETA  1                                                        00600002
         AIF   ('&DCB'(1,1) EQ '(').PAREN                               00650002
         LA    0,&DCB SET DCB PARAMETER.                                00700002
         AGO   .TEST                                                    00750002
.PAREN   AIF   ('&DCB'(&CTR+2,1) EQ ',').ERR                            00800002
         AIF   ('&DCB'(&CTR+2,1) EQ ')').LOAD                           00850002
&CTR     SETA  &CTR+1                                                   00900002
         AGO   .PAREN                                                   00950002
.LOAD    ANOP                                                           01000002
&REG     SETC  '&DCB'(2,&CTR)                                           01050002
         LR    0,&REG SET DCB PARAMETER.                                01100002
.TEST    ANOP                                                           01150002
         AIF   ('&FLAG' EQ 'E').EOV                                     01200002
         SR    1,1 SET CLOSE FLAG.                                      01250002
         AGO   .SVC                                                     01300002
.EOV     ANOP                                                           01350002
         LA    1,99(0,0) SET EOV FLAG.                         @YM02296 01400002
.SVC     ANOP                                                           01450002
         SVC   91 ISSUE VOLUME STATISTICS SVC.                          01500002
         MEXIT                                                          01550002
.ERR     IHBERMAC 190                                                   01600002
         MEND                                                           01650002
