         MACRO                                                          00094402
&NAME    VSCRATCH  &DSPCT=                                              00100002
         AIF       ('&DSPCT' EQ '').ERROR1                              00150002
         AIF       ('&DSPCT' NE '&DSPCT(1)').REG                        00200002
         LA        1,&DSPCT            LOAD DSPCT HDR ADDR IN REG 1     00250002
         AGO       .CONTD                                               00300002
.REG     AIF       ('&DSPCT(1)' EQ '1').CONTD                           00350002
         LR        1,&DSPCT(1)         LOAD DSPCT HDR ADDR IN REG 1     00400002
.CONTD   L         15,16               LOAD CVT ADDR IN REG 15          00450002
         L         15,CVTPVBP-CVTTCBP(,15)  LOAD VBP MOD ADDR IN R15    00500002
         L         15,16(,15)          LOAD IDAVBPS1 MOD ADDR IN R15    00550002
         BALR      14,15               BRANCH & LINK TO IDAVBPS1        00600002
         MEXIT                                                          00650002
.ERROR1  MNOTE     12,'OPERAND MISSING'                                 00700002
         MEND                                                           00750002
