         MACRO                                                          00050002
&NAME    WICLOSE &VDSCB=                                                00100002
&NAME    DS    0H                       *                               00150002
         AIF   ('&VDSCB' NE '&VDSCB(1)').REG1                           00200002
         AIF   ('&VDSCB' NE '').OK1                                     00250002
         MNOTE 12,'NO VDSCB SUPPLIED'                                   00300002
         MEXIT                                                          00350002
.OK1     ANOP                                                           00400002
         LA    1,&VDSCB                 VDSCB POINTER                   00450002
         AGO   .COM1                                                    00500002
.REG1    ANOP                                                           00550002
         AIF   ('&VDSCB(1)' EQ '1').COM1                                00600002
         LR    1,&VDSCB(1)              VDSCB POINTER                   00650002
.COM1    ANOP                                                           00700002
         L     15,X'10'                 CVT ADDRESSABILITY              00750002
         L     15,CVTPWI-CVTTCBP(,15)   WI BASE MODULE                  00800002
         BAL   14,4(,15)                GO TO WI CLOSE ROUTINE          00850002
         MEND                                                           00900002
