         MACRO                                                          00050002
&NAME    WIEXCP                                                         00100002
&NAME    L     15,X'10'                 CVT ADDRESSABILITY              00150002
         L     15,CVTPWI-CVTTCBP(,15)   WI BASE MODULE                  00200002
         BALR  14,15                    GO TO WIEXCP ROUTINE            00250002
         MEND                                                           00300002
