         MACRO                                                          00050002
&NAME    WIJOURN &TCB=,&CALLER=                                         00100002
&NAME    DS    0H                       *                               00150002
         AIF   ('&CALLER' NE 'CKPT').NOTCKPT                            00200002
         SR    0,0                      CHECKPOINT ID                   00250002
         AGO   .COM0                                                    00300002
.NOTCKPT ANOP                                                           00350002
         AIF   ('&CALLER' NE 'TASKCLOSE').ERROR1                        00400002
         LA    0,4                      TASK CLOSE ID                   00450002
         AGO   .COM0                                                    00500002
.ERROR1  ANOP                                                           00550002
         MNOTE 12,'CALLER NOT VALID, ''CKPT'' OR ''TASKCLOSE'' ONLY'    00600002
         MEXIT                                                          00650002
.COM0    ANOP                                                           00700002
         AIF   ('&TCB' NE '&TCB(1)').REG1                               00750002
         AIF   ('&TCB' NE '').OK1                                       00800002
         MNOTE 12,'NO TCB SUPPLIED'                                     00850002
         MEXIT                                                          00900002
.OK1     ANOP                                                           00950002
         LA    1,&TCB                 TCB POINTER                       01000002
         AGO   .COM1                                                    01050002
.REG1    ANOP                                                           01100002
         AIF   ('&TCB(1)' EQ '1').COM1                                  01150002
         LR    1,&TCB(1)                TCB POINTER                     01200002
.COM1    ANOP                                                           01250002
         L     15,X'10'                 CVT ADDRESSABILITY              01300002
         L     15,CVTPWI-CVTTCBP(,15)   WI BASE MODULE                  01350002
         BAL   14,8(,15)                GO TO WI CLOSE ROUTINE          01400002
         MEND                                                           01450002
