         MACRO                                                          04000000
&NAME    WRTRP &SIZE=,&DISP=                                            08000000
         AIF   (T'&SIZE NE 'O').A1                                      12000000
         MNOTE 8,'SIZE NOT STATED'                                      16000000
         MEXIT                                                          20000000
.A1      ANOP                                                           24000000
         AIF   ('&SIZE'(1,1) EQ '(').A2                                 28000000
&NAME    LA    R1,&SIZE .                  LENGTH OF MESSAGE            32000000
         AGO   .A3                                                      36000000
.A2      ANOP                                                           40000000
         AIF   ('&SIZE'(1,3) EQ '(1)').A4                               44000000
&NAME    LR    R1,&SIZE .                  LENGTH OF MESSAGE            48000000
         AGO   .A3                                                      52000000
.A4      ANOP                                                           56000000
&NAME    L     R15,PARPRADR .           ENTRY TO PARALLEL PRINT         60000000
         AGO   .A5                                                      64000000
.A3      ANOP                                                           68000000
         L     R15,PARPRADR .           ENTRY TO PARALLEL PRINT         72000000
.A5      ANOP                                                           76000000
         LA    R15,&DISP.(R15) .            ENTRY POINT IN DPRINT       80000000
         BALR  R14,R15 .                LINK TO MODULE                  84000000
         MEND                                                           88000000
