         TITLE 'IGG019T2-EOB RTN, DA OUTPUT WITH TRK OVFLO,TOTALING'    00030002
         MACRO                                                          00032002
&NAME    IF    &A,&IS=,&ISNOT=,&GOTO=                                   00040018
         LCLB  &NOERR                                                   00060018
&NOERR   SETB  1                                                        00080018
         AIF   ('&A' NE '').SKIP                                        00100018
         MNOTE 'TEST  ADDRESS NOT SPECIFIED.'                           00120018
&NOERR   SETB  0                                                        00140018
.SKIP    AIF   ('&GOTO' NE '').SKIP2                                    00160018
         MNOTE 'BRANCH ADDRESS MISSING.'                                00180018
&NOERR   SETB  0                                                        00200018
.SKIP2   AIF   ('&IS' NE '' OR '&ISNOT' NE '').SKIP3                    00220018
         MNOTE 'TEST CONDITION NOT SPECIFIED.'                          00240018
&NOERR   SETB  0                                                        00260018
.SKIP3   AIF   (&NOERR).SKIP4                                           00280018
         MEXIT                                                          00300018
.SKIP4   AIF   ('&IS' EQ '').NOIS                                       00320018
***                                                                     00340018
&NAME    TM    &A,&IS                                                   00360018
         BO    &GOTO                                                    00380018
***                                                                     00400018
         MEXIT                                                          00420018
.NOIS    ANOP                                                           00440001
***                                                                     00460018
&NAME    TM    &A,&ISNOT                                                00480018
         BZ    &GOTO                                                    00500018
***                                                                     00520018
         MEND                                                           00540018
         EJECT                                                          00550002
IGG019T2 CSECT                                                     UT18 00560018
         SPACE                                                          00562002
*********************************************************************** 00565002
*                                                                     * 00570002
*MODULE NAME = IGG019T2                                               * 00575002
*                                                                     * 00580002
*DESCRIPTIVE NAME = EOB RTN, DA OUTPUT WITH TRK OVFLO, USER TOTALING  * 00585002
*                                                                     * 00590002
*COPYRIGHT = NONE                                                     * 00595002
*                                                                     * 00596002
*                                                                       00600018
*FUNCTION/OPERATION - DETERMINES WHETHER CURRENT RECORD TO BE WRITTEN * 00620018
*   OR READ(F STANDARD) WILL FIT ON CURRENT TRACK. THIS CALCULATION   * 00640018
*   ASSUMES THIS RECORD WILL BE LAST ON TRACK. IF RECORD WILL FIT,    * 00660018
*   SPACE REQUIRED IS RECALCULATED ASSUMING RECORD IS NOT THE LAST.   * 00680018
*   DCBTRACKBALANCE IS REDUCED BY THIS AMOUNT. IF RECORD WILL NOT FIT * 00700018
*   THE NEXT SEQUENTIAL TRACK IS FOUND. IF NONE EXISTS,AN EOV         * 00720018
*   CONDITION IS SIMULATED. FOR STANDARD F THE SEEK ADDRESS IN THE IOB* 00740018
*   IS INCEMENTED BY ONE SINCE SEARCH DIRECT IS USED.                 * 00760018
*                                                                     * 00761002
*CHANGE ACTIVITY = AS FOLLOWS                                         * 00765002
*                                                                     * 00780018
*          RELEASE 19 DELETIONS                                       * 00783018
*          RELEASE 20 DELETIONS                                       * 00786018
*2341094600                                                      A32558 00787020
*2341035400,055600,056600,090000,096200,135200,136600            S20201 00788020
*          RELEASE 21 DELETIONS                                       * 00789018
*          VS2 RELEASE 02 DELETIONS                                   * 00799002
*D143400-143600                                                  Y02072 00801002
*                                                                YM1433 00801402
*                                                                YM4640 00801502
*                                                                XM4343 00803002
* 030700-030900                                                  YM7588 00804002
*                                                                       00806002
*        VS2 RELEASE 04 DELETIONS                                       00806403
*A125920-126192,144520-144640                                  @ZA02255 00806803
*STATUS CHANGE LEVEL 005                                                00807002
*                                                                     * 00809002
* ENTRY POINTS - IGG019T2 FROM ALL GET/PUT/READ/WRITE/MODULES      UT18 00810018
*               LA   2,DCB                                            * 00820018
*               LA   3,IOB                                            * 00840018
*               L    4,DCBOFFSR  OR DCBOFFSW                          * 00860018
*               L    15,76(2)    FOR WRITE(BSAM)                      * 00880002
*               L    15,92(2)    FOR QSAM                             * 00900002
*               BALR 14,15                                            * 00920018
*                                                                     * 00940018
*INPUT - IOB                                                          * 00960003
*         IOB+OFFSET - RECORD LENGTH IN CCW                           * 00980018
*        DCB                                                          * 01000018
*         DCBDVTBL - POINTS TO DEVICE ENTRY IN IECZDTAB               * 01020018
*         DCBDEB AD - DEBADDRESS                                      * 01040018
*         DCBTRBAL - BYTES REMAINING ON TRACK                         * 01060018
*         DCBFDAD  - POINTS TO LAST RECORD READ OR WRITTEN            * 01080018
*         DCBKEYLE - KEYLENGTH - ADDED TO BLKSIZE FOR TOTAL LENGTH    * 01100018
*         DCBCIND1 - VOL.FULL BIT ON - INDICATES PREVIOUS WRITE EOV   * 01120018
*        DEB                                                          * 01140018
*         DEBNMEXT - NUMBER OF EXTENTS IN DEB                         * 01160018
*         DEBOFLGS - X'04' MEANS SPLIT CYL EXTENTS                    * 01180018
*         DEBSTRCC AND DEBSTRHH - STARTING CCHH OF EXTENT             * 01200018
*         BEBENDCC AND DEBENDHH - ENDING CCHH OF EXTENT               * 01220018
*        IECZDTAB - I/O DEVICE TABLE                                  * 01240018
*                   LAST RECORD OV'HD                                 * 01260018
*                   NOT LAST RECORD OV'HD                             * 01280018
*                   KEY OV'HD                                         * 01300018
*                   MAX,TRACK LENGTH                                  * 01320018
*                   TOLERANCE                                         * 01340018
*                                                                     * 01360018
* OUTPUT - ECB - POSTED IN ERROR IF EOV .                               01380018
*        DCBTRBAL - UPDATED REMAING TRACK LENGTH                      * 01400018
*        DCBFDAD - UPDATED RECORD ADDRESS = LAST SEGMENT                01420018
*        IOBSEEK - RECORD ADDRESS = FIRST SEGMENT                       01440018
*        IOB+20   - UNIT EXCEP. IN CSW SET FOR EOV                    * 01460018
*                                                                     * 01480018
* EXTERNAL ROUTINES - SVC 25  ENTERED WITH THE TRACK OVERFLOW BIT IN    01500018
*                     DCBCIND2 SET- PURPOSE IS TO ERASE TO EOE.         01520018
*                                                                     * 01540018
*                    IF THE USER SPECIFIES THE USER TOTALING FACILIUT18 01550018
*                    (OPTCD=T) THEN IGG019AX WILL BE ACCESSED VIA AUT18 01560018
*                    'BALR R9,R10'                                 UT18 01570018
*EXITS/NORMAL - RETURN TO GET/PUT/WRITE/READ ROUTINE ON REG.14 AFTER  * 01580018
*               SCHEDULING I/O,OR POSTING ECB COMPLETE,ERROR IF EOV   * 01600018
*                                                                     * 01620018
*EXITS/ERROR - ABEND - CODE 002 - ISSUED VIA -                        * 01640002
*          1. DMABCOND 254 IF THE RECORD SIZE EXCEEDS 32,760 BYTES.   * 01660002
*          2. DMABCOND 204 IF THE BLOCKSIZE IN THE BDW OR THE DECB IS * 01670002
*             GREATER THAN THE BLOCKSIZE IN THE DCB.                  * 01672002
*                                                                     * 01680018
*TABLES/WORK AREAS - ASSUMES USER REGS.2-8 SAVED.SAVES REGS.9-10 INTO * 01700018
*                    SAVE AREA + 64                                     01720018
*                                                                     * 01740018
*ATTRIBUTES - READONLY,REENTRANT,REUSABLE                             * 01760018
*                                                                     * 01765002
*NOTES = SEE BELOW                                                    * 01770002
*                                                                     * 01775002
*     PATCH LABEL = PATCH A DC STATEMENT                              * 01776002
*                                                                     * 01777002
*********************************************************************** 01777402
         EJECT                                                          01778002
* REGISTER NAMES AND USAGE.                                             01780018
*                                                                       01800018
RALPHA   EQU   0                        WORK REG. ALPHA MAY NOT BE USED 01820018
*                                       AS AN ADDRESS REG.              01840018
R1       EQU   1                        THE NAME PRESERVES IDENTITY.    01860018
RDEB     EQU   1                        DEB ADDRESS LOADED IN THIS RTN. 01880018
RDCB     EQU   2                        HOLDS DCB ADDRESS UPON ENTRY.   01890002
RIOB     EQU   3                        HOLDS IOB ADDRESS UPON ENTRY.   01892002
RGAMMA   EQU   4                        WORK REG.                       01900018
RSTEPPER EQU   5                        STEPS THRU COUNT FLD AND S.A.'S 01940002
RCPBASE  EQU   6                        CP SEGMENT BASE REG.            01980002
ROFFSW   EQU   7                        HOLDS WRITE CCW OFFSET ON ENTRY 02060018
*              BUT WILL BE CLOBBERED, AND RESTORED FROM DCB PROIR TO    02080018
*              EXIT.  REG MUST BE X-PARENT FOR QSAM.                    02100018
ROVFLO   EQU   ROFFSW                   CCW OFFSET KNOWN. OVFLO =       02120018
*                                       LENGTH REMAINING TO BE WRITTEN. 02140018
DONTUSE8 EQU   8                        NOT SAVED. HOLDS USER CONTENTS. 02150002
RBETA    EQU   9                        SAVED FIRST, USED AS WORK REG.  02160018
RDEVTAB  EQU   10                       SAVED FIRST, DEVTABLE ADDRESS   02180018
*                                       LOADED.                         02200018
OR11     EQU   11                       NOT SAVED. HOLDS USER CONTENTS. 02210002
OR12     EQU   12                       NOT SAVED. HOLDS USER CONTENTS. 02212002
RSAVE    EQU   13                       USERS REGISTER SAVE AREA.       02220018
RRETN    EQU   14                       RETURN TO BSAM/QSAM RTN.        02240018
RBASE    EQU   15                       ENTRY-POINT/BASE REG.           02260018
         EJECT                                                          02280002
UNITEXC  EQU   X'01'                    SETS IOBFLAG3.                  02290002
COMPWERR EQU   X'42'                    END OF EXTENT CONDITION HAS     02420018
*                                       BEEN ENCOUNTERED.               02440018
CPSEGLEN EQU   32                       LENGTH OF ONE CP SEGMENT.       02460018
D0       EQU   0                        DISPLACEMENT OF ZERO     S20201 02462020
TBOVHD   EQU   X'08'                    TWO BYTE OVHD INDICATOR  S20201 02476020
EIGHT    EQU   8                        LENGTH OF A COUNT FIELD         02480018
RLTV     EQU   32                       VECTOR OFFSET IN CVT.           02500018
CNVT     EQU   28                       VECTOR OFFSET IN CVT.           02520018
ZERO     EQU   0                        G.P. CONSTANT.                  02540018
TRKOVFLO EQU   X'80'                    T.O. INDICATOR IN DCBCIND1      02560018
NOERROR  EQU   X'7F'                    ECB MASK. ALL BITS ON = NOERROR 02580018
ANYZERO  EQU   14                       MASK FOR TESTING ANY SELECTED   02600018
*                                       BITS = ZERO.                    02620018
ONES     EQU   X'FF'                    G.P. CONSTANT.                  02640018
VOLFULL  EQU   X'20'                                                    02660018
IOBSIZE  EQU   48                       STANDARD IOB + BSAM/QSAM EXTEN. 02680018
VALCHK   EQU   X'80'                    WRITE VALIDITY CHECK BIT IN     02700018
*                                       DCBOPTCD.                       02720018
SPLIT    EQU   X'04'                                                    02740018
* COMMAND CODES FOR THE 2841 C.U.                                       02760018
*                                                                       02780018
SEEKCYL  EQU   X'0B'                    CYLINDER SEEK.                  02800018
SRCHEQMT EQU   X'B1'                    SEARCH EQ ID IN MULTI-TRACK.    02820018
WCKD     EQU   X'1D'                    WRITE COUNT, KEY AND DATA.      02840018
WSCKD    EQU   1                        WRITE SPECIAL OP CODE.          02860018
SETSC    EQU   X'23'                    SET SECTOR COMMAND       S20201 02862020
RDSC     EQU   X'22'                    READ SECTOR COMMAND      S20201 02864020
*                                                                       02872020
* CCW FLAGS                                                             02880018
CC       EQU   X'40'                    COMMAND CHAIN.                  02900018
*                                                                       02920018
R0       EQU   0                        PARAMETRIC ZERO            UT18 02922018
R3       EQU   3                        WORK REG                   UT18 02926018
R4       EQU   4                        PARAMETRIC FOUR            UT18 02928018
R6       EQU   6                        WORK REG                   UT18 02930018
R9       EQU   9                        PARAMETRIC NINE            UT18 02932018
R10      EQU   10                       PARAMETRIC TEN             UT18 02934018
R13      EQU   13                       PARAMETRIC 13              UT18 02936018
R15      EQU   15                       WORK REG                   UT18 02938018
THREE6   EQU   36                       PARAMETRIC 36              UT18 02942018
UTFBIT   EQU   X'02'                    MASK FOR USER TOTALING TESTUT18 02944018
         EJECT                                                          02947202
         USING IGG019T2,RBASE           ESTABLISH BASE REGISTER         02948018
         USING SAMSIOB,RIOB                                             02960018
         USING IHADCB,RDCB                                              02980018
         B     BEGIN                   BRANCH AROUND MODULE ID   YM4640 02980102
         DC    C'IGG019T2'             MODULE NAME               YM4640 02980202
         DC    C' YM7588 '             LAST SHIP CODE            YM7588 02980302
         DC    C'02/19/74'             LAST SHIP DATE            YM7588 02980402
BEGIN    DS    0H                      END OF MODULE ID          YM4640 02980502
*******************************************************************UT18 03002018
         L     RDEB,DCBDEBAD            GET THE DEB BASE ADDR.     UT18 03004018
         USING DEBB,RDEB                ESTABLISH BASEREG FOR DEB  UT18 03004402
         STM   RBETA,RDEVTAB,64(R13)    STORE REGS 9,10            UT18 03006018
         TM    DCBOPTCD,UTFBIT          TEST FOR USER TOTALING     UT18 03008018
         BZ    CONTINUE                 NOT SPECIFIED - SO BRANCH  UT18 03010018
*                                                                  UT18 03012018
         SR    R9,R9                    CLEAR THIS REGISTER        UT18 03014018
         SR    R10,R10                  CLEAR THIS REGISTER        UT18 03016018
         IC    R9,DEBNMEXT              GET NO OF EXTENTS          UT18 03018018
          IC   R10,DEBEXSCL             GET DEB EXTENT SCALE       UT18 03020018
         SLL   R9,ZERO(R10)             MULT TO GET LEN OF DEV DEP UT18 03022018
         L     R15,THREE6(RDEB,R9)      GET SAVE AREA ADDR         UT18 03024018
*                                                                  UT18 03026018
*  DEBR POINTS TO BEG. OF DEB +32 POINTS TO DEV DEP SECTION, R9    UT18 03028018
*        CONTAINS LEN OF DEV DEP SECTION, +4 POINTS TO SAVE AREA   UT18 03030018
*        POINTER.  SO R10 CONTAINS SAVE AREA ADDR                  UT18 03032018
*                                                                  UT18 03034018
         USING TOTSAVWA,R15             ESTAB BASE FOR TOT WRKAREA UT18 03036018
         STM   R3,R6,TOTREGSV           SAVE REGS FOR SAVE RTN     UT18 03038018
         L     R4,TOTSVPTR              GET ADDR OF SAVE ROUTINE   UT18 03040018
         BALR  R3,R4                    GO TO SAVE ROUTINE         UT18 03042018
         LM    R3,R6,TOTREGSV           RESTORE REGISTERS          UT18 03044018
*                                                                  UT18 03046018
CONTINUE EQU   *                                                   UT18 03048018
         BALR  R15,R0                   SET NEW BASE               UT18 03050018
         USING NEWBASE,R15              RE-ESTAB MODULE BASE REG   UT18 03052018
NEWBASE  EQU   *                                                   UT18 03054018
*******************************************************************UT18 03056018
         IF    DCBCIND1,IS=VOLFULL,GOTO=POSTECB                         03060018
         SR    RCPBASE,RCPBASE                                          03100018
         IC    RCPBASE,DCBWCPO          BUILD WRITE CHANNEL PGM         03120018
         AR    RCPBASE,RIOB             ADDRESSABILITY.                 03140018
         USING WCPMAP,RCPBASE                                           03160018
* WORK REG SIGMA IS IN USE AS 'RCPBASE'.                                03180018
         SR    RSTEPPER,RSTEPPER                                        03200018
         IC    RSTEPPER,DCBWCPL         NUMBER OF CCW'S BETWEEN IOB AND 03220018
*                                       FIRST COUNT FIELD.              03240018
         SLL   RSTEPPER,3               DBL WDS TO BYTES.               03260018
*                                                                       03280018
         AR    RSTEPPER,RCPBASE         CP START ADDR + ITS LENGTH      03300018
*                                       GIVES ADDRESSABILITY FOR COUNT  03320018
*                                       FIELDS AND S.A.'S. (THEY ARE    03340018
*                                       INTERLEAVED, WITH A COUNT FIELD 03360018
*                                       BEING FIRST, EACH IS A DBL WD). 03380018
         USING COUNTFLD,RSTEPPER                                        03400018
* WORK REG DELTA IS IN USE AS 'RSTEPPER'.                               03420018
         L     RDEVTAB,DCBDVTBL         ADDRESS OF DEV TABLE ENTRY FOR  03440018
*                                       THIS UNIT.                      03460018
         USING DEVTAB,RDEVTAB                                           03480018
*                                                                       03500018
         L     RDEB,DCBDEBAD            DEB ADDRESSABILITY.             03520018
*                                                                       03524020
* CHECK FOR RCD READY FEATURE BEING USED AND IF NOT ADJUST              03528020
* RCPBASE, IF YES, UPDATE SECTOR VALUE                                  03532020
*                                                                       03536020
         CLI   CHANPGM,SETSC            RCD READY CHP            S20201 03540020
         BNE   NOFET3                   BRANCH IF NO             S20201 03544020
         AH    RCPBASE,ATE8             ADJUST RCPBASE FOR RCD   S20201 03548020
*                                       READY FEAT                      03552020
NOFET3   EQU   *                                                 S20201 03556020
*                                                                       03560018
         L     ROVFLO,DATALEN-2         GET COMPOSITE KL+DL FROM CCW.   03580018
         LA    ROVFLO,0(ROVFLO)         CLEAR OUT THE FLAGS.            03600018
         LR    RBETA,ROVFLO             TEMP WORK REG.                  03620018
         SR    RALPHA,RALPHA                                            03640018
         IC    RALPHA,DCBKEYLE          TO REMOVE KL FROM KL+DL.        03660018
         SR    RBETA,RALPHA             BETA=DL.                        03680018
         CH    RBETA,DCBBLKSI           ABEND IF RECORD LENGTH          03700018
         BH    ERREXIT1                 GREATER THAN BLKSIZE.    Y02072 03720002
         LA    RBETA,7(RBETA)           MAKES POSSIBLE AN LTR FOR       03740018
*                                       DL GT 32760.                    03760018
         SLL   RBETA,16                 ALIGN FOR SIGN TEST.            03780018
         LTR   RBETA,RBETA              DL+7 MUST BE LESS THAN 32768.   03800018
         BM    ERREXIT2                 BRANCH IF DL GT 32760    Y02072 03820002
*                                                                       03840018
         LA    RALPHA,2                 LENGTH OF CCW LENGTH FIELD.     03860018
         LR    RBETA,RSTEPPER           COPY REG.                       03880018
         CLI   CHANPGM,SETSC            RCD READY CHP            S20201 03882020
         BNE   NOFET4                   BRANCH IF NO             S20201 03884020
         TM    DCBOPTCD,VALCHK          VALIDITY CHK USED        S20201 03886020
         BO    NOFET4                   BRANCH IF YES            S20201 03888020
         AH    RALPHA,ATE8              INCREMENT FOR RD SECTOR  S20201 03890020
NOFET4   EQU   *                                                 S20201 03892020
         SR    RBETA,RALPHA             BETA POINTS TO THE LAST CCW     03900018
*                                       LENGTH FIELD. (MAY OR MAY NOT   03920018
*                                       BE THE WRITE VALIDITY CHECK     03940018
*                                       SEGMENT).                       03960018
*                                                                       03980018
         STH   ROVFLO,0(RBETA)          USING THE LAST CCW LENGTH TO    04000018
*                                       SAVE THE OVFLO AMOUNT. USED TO  04020018
*                                       RECOVER AFTER GETTING A NEW     04040018
*                                       EXTENT,  IS ALSO  THE WRITE     04060018
*                                       VALIDITY CHECK LENGTH IF THE    04080018
*                                       VAL CHK CP EXISTS.              04100018
         MVC   TEMPSAVE(2),DCBTRBAL     PRESERVE THE ORIGINAL TRK BAL.  04120018
*                                       WILL BE RESTORED IF A RECORD    04140018
*                                       CANNOT BE WRITTEN.              04160018
SETFDAD  MVC   IOBFDAD(8),DCBFDAD       COPY FDAD INTO IOB.             04180018
RUPBY1   IC    RBETA,DCBFDAD+7          GET 'R'.                        04200018
         LA    RBETA,1(RBETA)           R=R+1.                          04220018
         STC   RBETA,DCBFDAD+7          PUT IT BACK.                    04240018
*                                                                       04260018
         MVC   CYLINDER(5),DCBFDAD+3    INITIALIZE THE ID PART OF THE   04280018
*                                       FIRST COUNT FIELD.              04300018
*                                                                       04320018
* END OF FIRST TIME LOGIC.                                              04340018
*                                                                       04360018
* BEGIN LOOP LOGIC.                                                     04380018
*                                                                       04400018
* CALCULATE THE SPACE REQUIRED TO WRITE THE DATA AS A LAST RECORD.      04420018
*                                                                       04440018
STRTLOOP SR    RBETA,RBETA                                              04460018
         SR    RALPHA,RALPHA                                            04480018
         IC    RBETA,OVERL              L = OVHD FOR LAST RECORD.       04500018
         TM    DEVFLAG,TBOVHD           TWO BYTE OVHD USED       S20201 04504020
         BNO   MZ0010                   BRANCH NO                S20201 04508020
         LH    RBETA,OVERI              GET TWO BYTE OVHD        S20201 04512020
MZ0010   EQU   *                                                 S20201 04516020
         IC    RALPHA,DCBKEYCN          KEYCN = EITHER 0 OR K (IF OR    04520018
*                                       IF NOT KEYS, RESPECTIVELY).     04540018
         LR    RGAMMA,ROVFLO            COPY THE AMOUNT REMAINING TO    04560018
*                                       BE WRITTEN (OVERFLOW).          04580018
         AR    RGAMMA,RBETA             OVFLO+L                         04600018
         SR    RGAMMA,RALPHA            OVFLO+L-KEYCN IS THE SPACE FOR  04620018
*                                       A LAST RECORD.                  04640018
*                                                                       04660018
         CH    RGAMMA,DCBTRBAL          WILL THIS TRACK HOLD THE RECORD 04680018
         BNH   FINAL                    YES. BRANCH TO DO FINAL LOGIC   04700018
*                                       FOR THE LAST CP SEGMENT.        04720018
*                                                                       04740018
* RECORD WILL NOT FIT AS A LAST RECORD. CALCULATE HOW MUCH WILL FIT AND 04760018
* TAILOR THE CURRENT CP SEGMENT TO WRITE THAT AMOUNT. AT LEAST ONE MORE 04780018
* RECORD SEGMENT WILL BE WRITTEN AFTER THIS ONE.                        04800018
* CCWLENGTH=TRBAL+KEYCN-L IS AMOUNT THAT WILL FIT.                      04820018
         LH    RGAMMA,DCBTRBAL          GET TRACK BAL.                  04840018
         AR    RGAMMA,RALPHA            TRBAL+KEYCN.                    04860018
         SR    RGAMMA,RBETA             TRBAL+KEYCN-L IN GAMMA.         04880018
MIDLOOP  MVC   DCBTRBAL,TRKCAP          RESET TRBAL TO DEVICE MAX.      04900018
         NI    TRACKFUL,ZERO            HOUSEKEEP TRACK FULL SWITCH.    04920018
         LTR   RGAMMA,RGAMMA            SEE IF ANY DATA CAN BE WRITTEN. 04940018
         BP    WILLFIT                  BRANCH IF ROOM FOR DATA.        04960018
         OI    TRACKFUL,ONES            SET TRACK FULL SWITCH. OCCURS   04980018
*                                       ONLY IF FIRST TRACK HAS NO ROOM 05000018
*                                       FOR DATA. ACTION REQ'D IS TO    05020018
*                                       ADVANCE TO NEXT TRACK.          05040018
         B     CONVERT                  NO ROOM FOR DATA. OVERHEAD      05060018
*                                       EXCEEDS TRK BAL.  GET A NEW     05080018
*                                       TRACK.                          05100018
WILLFIT  SR    ROVFLO,RGAMMA            REDUCE THE OVFLO FIGURE BY THE  05120018
*                                       CURRENT TRACK LENGTH.           05140018
*                                                                       05160018
         MVI   WRTOPCD,WSCKD            WRITE SPECIAL BECAUSE THIS IS   05180018
*                                       NOT THE LAST SEGMENT.           05200018
         MVI   NULLFLAG,CC              COMMAND CHAIN TO NEXT SEGMENT.  05220018
         STH   RGAMMA,DATALEN           PUT SEGMENT LENGTH IN WRT CCW.  05240018
         SR    RALPHA,RALPHA                                            05260018
         IC    RALPHA,KEYLENTH          KEY LENGTH FROM COUNT FIELD.    05280018
         SR    RGAMMA,RALPHA            DATA LEN= SEG LEN - KL.         05300018
         STH   RGAMMA,DLDL              PUT IT IN COUNT FLD DATA LENGTH 05320018
         AR    RGAMMA,RALPHA            RECONSTRUCT SEGMENT LENGTH.     05340018