         TITLE 'IGG0191S, LEVEL 2 EXEC FOR D.A. WITH TRACK OVERFLOW.'   00030002
         MACRO                                                          00032002
&NAME    IF    &A,&IS=,&ISNOT=,&GOTO=                                   00040000
         LCLB  &NOERR                                                   00060000
&NOERR   SETB  1                                                        00080000
         AIF   ('&A' NE '').SKIP                                        00100000
         MNOTE 'TEST  ADDRESS NOT SPECIFIED.'                           00120000
&NOERR   SETB  0                                                        00140000
.SKIP    AIF   ('&GOTO' NE '').SKIP2                                    00160000
         MNOTE 'BRANCH ADDRESS MISSING.'                                00180000
&NOERR   SETB  0                                                        00200000
.SKIP2   AIF   ('&IS' NE '' OR '&ISNOT' NE '').SKIP3                    00220000
         MNOTE 'TEST CONDITION NOT SPECIFIED.'                          00240000
&NOERR   SETB  0                                                        00260000
.SKIP3   AIF   (&NOERR).SKIP4                                           00280000
         MEXIT                                                          00300000
.SKIP4   AIF   ('&IS' EQ '').NOIS                                       00320000
***                                                                     00340000
&NAME    TM    &A,&IS                                                   00360000
         BO    &GOTO                                                    00380000
***                                                                     00400000
         MEXIT                                                          00420000
.NOIS    ANOP                                                           00440001
***                                                                     00460000
&NAME    TM    &A,&ISNOT                                                00480000
         BZ    &GOTO                                                    00500000
***                                                                     00520000
         MEND                                                           00540000
IGG0191S CSECT                                                          00560000
*MODULE NAME - IGG0191S                                          Y02072 00560402
*                                                                       00560802
*DESCRIPTIVE NAME - BUILD IOBS                                   Y02072 00561202
*                                                                       00561602
*COPYRIGHT - NONE                                                Y02072 00561702
*                                                                       00561802
*CHANGE ACTIVITY - AS FOLLOWS:                                   Y02072 00561902
*                                                                       00562002
*        VS 1 RELEASE 3 DELETIONS/CHANGES                               00562102
*                                                                XA2992 00562202
*        VS2 RELEASE 2 DELETIONS                                 Y02072 00562402
*005520,006000,043120,043300-043360,069780-069800,079580,70400,  Y02072 00562802
*70700,74600,75600,104400,104600                                 Y02072 00564802
*                                                                YM4697 00566802
*                                                                       00568803
*        VS2 RELEASE 3 DELETIONS                                        00569203
*                                                              @Z30TSCF 00569603
*        OS RELEASE 21 DELETIONS                                 Y02072 00570302
*0083079040-080000                                               A37507 00577802
*   REFER TO CODE FLAGGED XA2992                                SA62479 00578202
*        OS RELEASE 20 DELETIONS                                        00579802
*3004058400,061800,067800-068200,068600,068800-069800,070600,    S20201 00585202
*3004079000,080000                                               S20201 00592602
*A3540100,A5000100-5000900 OX20778 FLAGGED AS------------------@ZA29383 00593637
*                                                                       00594637
*                                                                       00595637
*STATUS CHANGE LEVEL 003                                                00600002
* THIS EXECUTOR RUNS IN TANDEM WITH IGG0191H, WHICH GETS CORE FOR AND   00620000
* COMPLETES BUILDING THE IOB/CP'S.                                      00640000
*                                                                       00660000
* THE MAJOR FUNCTIONS OF THIS EXEC ARE-                                 00680000
*                                                                       00700000
* 1. STORE THE ID'S FOR THE EOB, NOTE/POINT ROUTINES REQ'D.             00720000
* 2. COMPLETE THE DCB FIELDS KNOWN PRIOR TO GETTING CORE FOR IOB/CP'S.  00740000
* 3. REPEAT FOR EACH DCB BEING OPENED.                                  00760000
* 4. CALCULATE AMOUNT OF CORE NEEDED FOR IOB'S AND GETMAIN IT    Y02072 00770002
* 5. SET AN AUDIT TRAIL BIT IN THE OPEN WORKAREA INDICATING      Y02072 00772002
*    TO FORCE CLOSE THAT THE CORE GETMAINED FOR THE IOB'S CAN    Y02072 00774002
*    BE FREEMAINED.                                              Y02072 00776002
*                                                                       00780000
* ENTRY POINTS- FROM IGG0191B BY XCTL.                                  00800000
*                                                                       00820000
* EXITS- TO IGG0191H BY XCTL                                            00840000
*        TO IGG0199K IF SEARCH DIRECT                                   00850020
*                                                                       00860000
*INPUT-REGISTERS WITH THE ADDRESSES OF THE FOLLOWING-                   00880000
*   THE PARAMETER LIST  (POINTERS TO TOP AND CURRENT ENTRY).            00900000
*   THE WHERE-TO-GO TABLE (WTG) (POINTERS TO TOP AND CURRENT).          00920000
* EXTERNAL ROUTINES- NONE.                                              00940000
* ATTRIBUTES- REENTRANT, REUSABLE, RUNS IN DATA MANAGEMENT KEY   Y02072 00960002
*             UNLESS OTHERWISE SPECIFIED, RUNS IN SUPER STATE    Y02072 00970002
* TABLES/WORKAREAS-                                                     00980000
*                                                                       00990002
*MACROS : ACTION - MODESET, XCTL, XCTLTABL, GETMAIN              Y02072 00992002
*                                                                       01000000
*TABLES/WORKAREAS- WHERE TO GO TABLE (WTG)                              01020000
*      BYTE  0-7  NAME                                                  01040000
*      BYTE  8-10 RELATIVE DISK ADDRESS(TTR) OF FIRST RECORD            01060000
*      BYTE 11    CONCATENATION NUMBER                                  01080000
*      BYTE 12    ZERO                                                  01100000
*      BYTE 13    ALIAS INDICATOR AND USER DATA FIELD DESCRIPTOR.       01120000
*                        ALIAS INDICATOR 1 BIT                          01140000
*                        NUMBER OF TTRS IN USERS DATA FIELD 2 BITS      01160000
*      BYTE 14-16 TTR OF FIRST TEXT RECORD                              01180000
*      BYTE 17    ZERO                                                  01200000
*      BYTE 18-19 TTR OF NOTE LIST OR SCATTER LIST                      01220000
*      BYTE 20    TRANSLATION TABLE                                     01240000
*      BYTE 21    ZERO OR NUMBER OF ENTRIES IN THE NOTE LIST            01260000
*      BYTE 22-23 ATTRIBUTES                                            01280000
*      BYTE 24-26 TOTAL CONTIGUOUS MAIN STORAGE REQUIRED FOR MODULE     01300000
*      BYTE 27-28 LENGTH OF FIRST TEXT RECORD                           01320000
*      BYTE 29    LENGTH OF WTG TABLE (IN DOUBLE WORDS)                 01340000
*      BYTE 30-31 PATH THROUGH LOADS OF ROUTINES                        01360000
*      BYTE 32-34 IDTTR OF EXECUTOR FOR FIRST DCB                       01380000
*      BYTE 35    WORKAREA ADDRESS FOR FIRST DCB                        01400000
*      BYTE 36-39 TABLE OF IDTTR'S                                      01420000
*      BYTE 32+N(8) IDTTR OF EXECUTOR FOR  N TH DCB  (3 BYTES)          01440000
*                   WORKAREA ADDRESS FOR N TH DCB    (1 BYTE )          01460000
*                   IDTTR OF LAST ROUTINE LOAD       (3 BYTES)          01480000
*                   NOT USED                         (1 BYTE)           01500000
*                                                                       01520000
*    WORKAREA- SEE 'FORCORE DSECT' (IECDSECT) IN THIS LISTING           01540000
*                                                                       01560000
*TABLES/WORKAREAS- PARAMETER LIST                                       01580000
*                                                                       01600000
*WORD ZERO                                                              01620000
*      BYTE  0    OPEN ATTRIBUTE  (INPUT, OUTPUT, UPDATE, IN/OUT,       01640000
*                                  OUT/IN, READ BACKWD, LEAVE , REREAD) 01660000
*      BYTES 1-3  DCB ADDRESS FOR FIRST DCB BEING OPENED.               01680000
*                                                                       01700000
*THE PARAMETER LIST HAS A ONE WORD ENTRY FOR EACH DCB BEING OPENED. THE 01720000
*FORMAT IS THE SAME AS WORD ZERO.                                       01740000
*END PARAMETER LIST.                                                    01760000
*                                                                       01780000
* REGISTER CONVENTIONS USED IN ALL OF OPEN-                             01800000
*                                                                       01820000
RDCB     EQU   2                        DCB REGISTER                    01840000
RBASE    EQU   3                        BASE REGISTER                   01860000
RCORE    EQU   4                        I/O SUPPORT WORK AREA           01880000
RA       EQU   RCORE                    USED FOR WORK REG UNTIL RCORE   01900000
*                                       IS NEEDED IN WTG LOGIC.         01920000
RVALCHK  EQU   RA                       VALIDITY CHECK CP BASEREG,      01940000
*                                       USES 'VCMAP' DSECT.             01960000
RPAR     EQU   5                        TOP OF PARAMETER LIST           01980000
RWTG     EQU   6                        TOP OF WTG TABLE                02000000
RPARC    EQU   7                        CURRENT PARAMETER               02020000
RWTGC    EQU   8                        CURRENT LOAD IN TRANSIENT AREA  02040000
RTIOT    EQU   9                        USED AS A WORK REG              02060000
RIOB     EQU   RTIOT                    USED AS IOB BASE REG WITH THE   02080000
*                                       IOB OVERLAY FROM FORECORE.      02100000
RUCB     EQU   10                       USED AS A WORK REG              02120000
RCPSIZE  EQU   RUCB                     USED TO CALCULATE AND HOLD THE  02140000
*                                       CHANNEL PGM SIZE.               02160000
RDEB     EQU   11                       DEB BASE REG.                   02180000
RB       EQU   12                       WORK REG.                       02200000
RCPBASE  EQU   RB                       CHANNEL PGM BASE REG USED WITH  02220000
*                                       'CPSEGMAP' DUMMY SECTION.       02240000
RC       EQU   13                       WORK REG.                       02260000
RSTEPPER EQU   RC                       POINTS TO THE CURRENT SEARCH    02280000
*                                       ADDRESS OR COUNT FIELD BEING    02300000
*                                       USED FOR CP CONSTRUCTION. WHEN  02320000
*                                       POINTING TO A COUNT FLD THE     02340000
*                                       'COUNTFLD' DUMMY SECTION IS     02360000
*                                       USED BASED ON THIS REG.         02380000
*                                                                       02400000
RE       EQU   0                        WORK REG. VOLATILE ACCROSS SVC. 02420000
RF       EQU   1                        WORK REG. VOLATILE ACCROSS SVC. 02440000
RD       EQU   14                       WORK REG. VOLATILE ACCROSS SVC. 02460000
RJ       EQU   15                       WORK REG. VOLATILE ACCROSS SVC. 02480000
*                                                                       02500000
*                                                                       02520000
* MASK CONFIGURATIONS FOR TESTING THE HI ORDER BYTE OF EACH PARAMETER   02540000
* LIST ENTRY. SIGNIFICANCE IS THE SAME AS THE DEB OPEN ATTRIBUTE FIELD. 02560000
*                                                                       02580000
INPUT    EQU   X'0F'                    TEST MASKED BITS FOR ZEROS.     02600000
OUTPUT   EQU   X'0F'                    TEST MASKED BITS FOR ONES.      02620000
INOUT    EQU   X'03'                                                    02640000
OUTIN    EQU   X'07'                                                    02660000
RDBACK   EQU   X'01'                                                    02680000
UPDAT    EQU   X'04'                                                    02700000
LEAVE    EQU   X'10'                                                    02720000
REREAD   EQU   X'30'                                                    02740000
*                                                                       02760000
* COMMAND CODES FOR THE 2841 CONTROL UNIT.                              02780000
*                                                                       02800000
SRCHEQ   EQU   X'31'                    SEARCH EQUAL ID.                02820000
SRCHEQMT EQU   X'B1'                    SEARCH EQUAL ID IN MULTI-TRACK. 02840000
TIC      EQU   X'08'                    TRANSFER IN CHANNEL.            02860000
WCKD     EQU   X'1D'                    WRITE COUNT, KEY, AND DATA.     02880000
WSCKD    EQU   X'01'                    WRITE SPECIAL, COUNT,KEY,DATA.  02900000
SEEKCYL  EQU   X'0B'                    SEEK CYLINDER.                  02920000
READDATA EQU   X'06'                    READ DATA SINGLE TRACK.         02940000
RDDATAMT EQU   86                       MULTI-TRACK READ DATA.          02960000
READKD   EQU   14                       READ KEY AND DATA.              02980000
READCT   EQU   X'92'                    READ COUNT M/T MODE.            03000000
*                                                                       03020000
* CHANNEL COMMAND WORD FLAGS.                                           03040000
*                                                                       03060000
SKIP     EQU   X'10'                    SKIP FLAG.                      03080000
SILI     EQU   X'20'                    SUPPRESS INCORRECT LENGTH IND.  03100000
CC       EQU   X'40'                    COMMAND CHAIN.                  03120000
DC       EQU   X'80'                    DATA CHAIN.                     03140000
SILICC   EQU   X'60'                    SILI AND CC TOGETHER            03160000
SILICCSK EQU   X'70'                    SILI, CC, AND SKIP.             03180000
* END CCW FLAGS.                                                        03200000
*                                                                       03220000
*                                                                       03240000
* MISCELLANEOUS ITEMS.                                                  03260000
*                                                                       03280000
COMPNOER EQU   X'7F'                   USED TO INIT. ECB.               03300000
DCANDCC  EQU   X'C0'                    USED TO SET IOBFLAG1.           03320000
IDLENGTH EQU   X'05'                    NMBR OF BYTES IN A 'CCHHR'.     03340000
POINT    EQU   X'04'                    DCBMACRF IF NOTE/POINT USED.    03360000
QSAM     EQU   X'01'                    QSAM BIT IN DCBIND2.            03380000
*                                                                       03400000
NPD2     EQU   5                        NOTE/POINT FOR PCI,UPD,T.O.     03420000
EPDT     EQU   9                        EOB FOR T.O.                    03440000
EGP2     EQU   8                        EOB FOR D.A. INPUT.             03460000
*                                                                       03480000
*                                                                       03500000
VALCHK   EQU   X'80'                    MASK TO DETERMINE IF WRITE      03520000
*                                       VALIDITY CHECK OPTION CALLED.   03540000
TBOVHD   EQU   X'08'                    FLAG FOR 2 BYTE OVERHD @ZA29383 03550037
IOBSIZE  EQU   48                       LENGTH OF A STANDARD IOB WITH   03560000
*                                       BSAM/QSAM/BPAM EXTENSION.       03580000
IOBDBLWD EQU   6                        NMBR OF DBL WDS IN IOB.         03600000
OFFSW    EQU   24                       OFFSET OF CCW THAT WRITES DATA. 03620000
OFFSR    EQU   32                       OFFSET OF THE READ CCW THAT     03640000
*                                       RECEIVES THE BLOCK LENGTH TO    03660000
*                                       BE READ.                        03680000
CPSEGLEN EQU   32                       LENGTH OF ONE CP SEGMENT.       03700000
NOTZERO  EQU   7                        CONDITION MASK USED AFTER       03720000
*                                       ARITHMETIC INSTRUCTIONS FOR THE 03740000
*                                       NOT-ZERO TEST.                  03760000
BBCCHH   EQU   6                        MIN. SEEK LENGTH.               03780000
*                                                                       03800000
ZERO     EQU   X'00'                    AN IMMEDIATE BYTE OF ZERO'S.    03820000
TWO      EQU   2                        NO. OF CCWS FOR RCD      S20201 03820820
*                                       READY                    S20201 03821620
*                                       READY FEATURE PER SEGMENT       03822420
THREE    EQU   3                        NO. OF DW REQUIRED FOR   S20201 03823220
*                                       RCD                      S20201 03824020
D0       EQU   0                        NO DISPLACEMENT          S20201 03824820
D1       EQU   1                        DISPLACEMENT OF ONE      S20201 03825620
D2       EQU   2                        DISP AND COUNT OF TWO    S20201 03826420
WDLEN    EQU   4                        DISPLACEMENT OF ONE WD   S20201 03827220
B5       EQU   5                        BYTE COUNT OF FIVE       S20201 03828020
D6       EQU   6                        DISPLACEMENT OF SIX      S20201 03828820
SXTN     EQU   16                       ADDED LENGTH OF A CHP    S20201 03829620
*                                       SEG-                     S20201 03830420
*                                       MENT IF RCD READY USED          03831220
B24      EQU   24                       ADDITIONAL BYTES IN RD   S20201 03832020
*                                       PROG                     S20201 03832820
*                                       FOR RECORD READY FEATURE        03833620
*                                                                       03834420
NORCDRY  EQU   X'20'                    NO RCD READY MASK        S20201 03835220
SDOPT    EQU   X'01'                    SEARCH DIRCT OPTION MASK S20201 03836020
SDFLG    EQU   X'08'                    SEARCH DIRECT INDICATOR  S20201 03836820
*                                                                       03837620
MAX      EQU   256                      MAX COUNT FOR SS INST    S20201 03838420
EIGHT    EQU   8                        LENGTH OF A COUNT FIELD.        03840000
ANYZERO  EQU   14                       MASK FOR MIXED OR ZEROS.        03860000
FIRST    EQU   X'01'                    USED TO SET IOB FLAG IN FIRST   03880000
*                                       IOB AND INIT. 'R'.              03900000
READCPL  EQU   40                       NMBR OF BYTES IN READ CP.       03920000
RCPDBLWD EQU   5                        NMBR OF DBL WDS IN RCP.         03940000
REMNANT  EQU   READCPL-OFFSR            OFFSR+REMNANT=READCPL.          03960000
OPCODE   EQU   0                        OFFSET OF CCW OPCODE(IN CCW).   03980000
ADDRESS  EQU   0                        OFFSET OF ADDRESS IN CCW        04000000
*                                       (IMPLIES THAT THE ADDRESS MUST  04020000
*                                       BE PUT IN BEFORE THE OP CODE)   04040000
FLAGS    EQU   4                        CCW FLAG BYTE.                  04060000
LENFLD   EQU   6                        START OF LENGTH FLD IN CCW.     04080000
U        EQU   X'C0'                    CODE FOR DCBRECFM=U             04100000
UNRELFLG EQU   X'02'                   IOB UNRELATED FLAG        A37507 04110021
*                                                                       04120000
         BALR  RBASE,0                  ESTABLISH ADDRESSABILITY.       04140000
         USING SOP1S,RBASE                                              04160000
         USING FORCORE,RCORE                                     Y02072 04170002
*                                                                       04180000
         USING IHADCB,RDCB              DCB ADDRESSABILITY.             04200000
*                                                                       04220000
*                                                                       04240000
SOP1S    EQU   *                                                        04260000
*                                                                       04280000
         B     BEGIN                    BR AROUND CONSTANTS      Y02072 04290002
         DC    C'IGG0191S'              MODULE NAME              Y02072 04292002
         DC    C'@ZA29393'              LAST SHIP CODE         @Z30TSCF 04294037
         DC    C'01/18/78'              LAST DATE MODIFIED     @Z30TSCF 04295037
BEGIN    DS    0H                                                Y02072 04298002
*                                                                       04298402
         L     RDCB,0(RPARC)            GET DCB ADDRESS FROM PARM. LIST 04300000
         L     RCORE,WDLEN(RWTGC)       COMMON WORK AREA         S20201 04310020
         L     RDEB,DCBDEBAD            DEB ADDRESSABILITY.             04320000
         USING DEB,RDEB                                                 04340000
         TM    DCBRECFM,U               U FORMAT                 S20201 04343020
         BM    OKRR                     BRANCH IF NO             S20201 04346020
         OI    JFCBMASK+D6,NORCDRY      ASSURE RCD READY NOT     S20201 04349020
*                                       USED                     S20201 04352020
OKRR     EQU   *                                                 S20201 04355020
         XC    DCBCNTRL,DCBCNTRL        CLEAR FOR LATER USE      XA2992 04355402
*                                                                       04357002
*  ISURE NOTE/POINT ROUTINE GETS LOADED FOR BPAM                 XA2992 04359002
*                                                                       04359402
         IF    DCBDSORG,ISNOT=DCBDSGPO,GOTO=CHKQSAM              XA2992 04359802
         MVI   DCBCNTRL+1,NPD2          NOTE/POINT INDEX ID      XA2992 04359902
         B     OUTTEST                  BYPASS QSAM TEST FOR PO  XA2992 04366602
CHKQSAM  EQU   *                                                 XA2992 04368602
         IF    DCBCIND2,ISNOT=QSAM,GOTO=OUTTEST                  XA2992 04373302
ISQSAM   IF    DEBOPATB,ISNOT=OUTPUT,GOTO=RCPONLY                       04380000
         B     SOMEOUT                  NOTE/POINT NOT REQ'D.           04400000
OUTTEST  IF    DEBOPATB,IS=OUTPUT,GOTO=PEROUT                           04440000
PERIN    IF    DCBMACRF,ISNOT=POINT,GOTO=INTEST                         04460000
         MVI   DCBCNTRL+1,NPD2          SET NOTE/POINT FOR DISK ID.     04480000
INTEST   IF    DEBOPATB,ISNOT=OUTPUT,GOTO=RCPONLY                       04500000
PEROUT   IF    DCBMACRF+1,ISNOT=POINT,GOTO=SOMEOUT                      04520000
         MVI   DCBCNTRL+1,NPD2          NOTE/POINT LOAD ID.             04540000
SOMEOUT  EQU   *                        NPD2 ID SET AS REQ'D.           04560000
*                                                                       04580000
* OPEN ATTRIBUTES SPECIFY SOME FORM OF OUTPUT (OUTPUT, IN/OUT, OUT/IN). 04600000
* GET A POINTER TO THE DEVICE CHARACTERISTICS TABLE ENTRY FOR THE       04620000
* DEVICE BEING USED.                                                    04640000
*                                                                       04660000
         L     RD,DCBDVTBL              RD POINTS TO THE TABLE ENTRY    04680000
*                                       FOR DEVICE USED.                04700000
*                                                                       04720000
         USING DEVTAB,RD                DEVICE TABLE ADDRESSABILITY.    04740000
*                                                                       04760000
* THE DIRECT ACCESS DEVICE TABLE OVERLAY APPLIES TO THE ENTRY BASED ON  04780000
* REGISTER RD.                                                          04800000
*                                                                       04820000
*CALCULATE THE MAXIMUM NUMBER OF RECORD SEGMENTS REQUIRED TO WRITE THE  04840000
* SPECIFIED BLOCKSIZE. APPLIES TO BSAM AND QSAM.                        04860000
*                                                                       04880000
*                                                                       04900037
         SR    RE,RE                                                    04907037
         LH    RF,DCBBLKSI              GET BLOCKSIZE FROM DCB.         04914037
*                                                                       04921037
* CALCULATE MAXIMUM TRACK CAPACITY BY SUBTRACTING OUT OVERHEAD @ZA29383 04928037
*                                                                       04935037
         LH    RJ,TRKCAP          GET TRACK CAP. FROM DEV TABLE.        04942037
         SR    RB,RB              CLEAR REGISTER               @ZA29383 04949037
         IC    RB,OVERK           GET KEY OVERHEAD             @ZA29383 04956037
         AR    RJ,RB              ADD KEY OVERHD TO TRKCAP     @ZA29383 04963037
         IC    RB,OVERL           GET LAST BLOCK OVERHEAD      @ZA29383 04970037
         TM    DEVFLAG,TBOVHD     IS THIS 2 BYTE OVERHEAD?     @ZA29383 04977037
         BNO   MZ0050             BRANCH IF NO                 @ZA29383 04984037
         LH    RB,OVERI           GET 2 BYTE OVERHEAD          @ZA29383 04991037
MZ0050   EQU   *                                                        04998037
         SR    RJ,RB              SUBTRACT LAST BLOCK OVERHD   @ZA29383 05005037
*                                                                       05020000
* DEVICE TABLE ADDRESSABILITY MAY BE RELINQUISHED                       05040000
*                                                                       05060000
         DROP  RD                                                       05080000
*                                                                       05100000
* DIVIDE BLOCKSIZE BY TRACK CAPACITY.                                   05106037
* REGS RE/RF MUST BE EVEN/ODD PAIR.                                     05112037
*                                                                       05120000
         DR    RE,RJ                    BLOCKSIZE/TRACK-CAPACITY.       05140000
*                                       RF = QUOTIENT.                  05160000
*                                       RE = REMAINDER                  05180000
*                                                                       05200000
* IF REMAINDER IS GREATER THAN 1, ROUND UP THE QUOTIENT.  QUOTIENT      05220000
* VALUE WILL BE ONE LESS THAN MAXIMUM NUMBER OF RECORD SEGMENTS REQ'D.  05240000
*                                                                       05260000
         CH    RE,ONE                   REMAINDER GREATER THAN ONE.     05280000
         BNH   GETCORE                  NO. BRANCH AROUND THE ROUND-UP. 05300000
*                                                                       05320000
         LA    RF,1(RF)                 ROUND UP THE QUOTIENT.          05340000
*                                                                       05360000
GETCORE  EQU   *                                                        05380000
*                                                                       05400000
         LA    RCPSIZE,1(RF)            RF+1 = MAX NMBR OF SEGMENTS.    05420000
*                                                                       05440000
         IF    DCBOPTCD,ISNOT=VALCHK,GOTO=GETCPSIZ                      05460000
*                                                                       05480000