         TITLE 'IGG0199K  DA, SEARCH DIRECT AND TRK OVFLOW EXEC'        00010002
         MACRO                                                          00020020
&NAME    IF    &A,&IS=,&ISNOT=,&GOTO=                                   00040020
         LCLB  &NOERR                                                   00060020
&NOERR   SETB  1                                                        00080020
         AIF   ('&A' NE '').SKIP                                        00100020
         MNOTE 'TEST  ADDRESS NOT SPECIFIED.'                           00120020
&NOERR   SETB  0                                                        00140020
.SKIP    AIF   ('&GOTO' NE '').SKIP2                                    00160020
         MNOTE 'BRANCH ADDRESS MISSING.'                                00180020
&NOERR   SETB  0                                                        00200020
.SKIP2   AIF   ('&IS' NE '' OR '&ISNOT' NE '').SKIP3                    00220020
         MNOTE 'TEST CONDITION NOT SPECIFIED.'                          00240020
&NOERR   SETB  0                                                        00260020
.SKIP3   AIF   (&NOERR).SKIP4                                           00280020
         MEXIT                                                          00300020
.SKIP4   AIF   ('&IS' EQ '').NOIS                                       00320020
***                                                                     00340020
&NAME    TM    &A,&IS                                                   00360020
         BO    &GOTO                                                    00380020
***                                                                     00400020
         MEXIT                                                          00420020
.NOIS    ANOP                                                           00440021
***                                                                     00460020
&NAME    TM    &A,&ISNOT                                                00480020
         BZ    &GOTO                                                    00500020
***                                                                     00520020
         MEND                                                           00540020
IGG0199K CSECT                                                          00560020
*                                                                       00580020
*MODULE NAME - IGG0199K                                          Y02072 00610002
*                                                                       00620002
*DESCRIPTIVE NAME - BUILD IOBS                                   Y02072 00620402
*                                                                       00620802
*COPYRIGHT - NONE                                                Y02072 00621202
*                                                                       00621602
*CHANGE ACTIVITY - AS FOLLOWS:                                   Y02072 00621702
*                                                                       00622002
*          VS2 RELEASE 1.6 DELETIONS                                  * 00622502
*105200-105400,105800-106000                                    SA51532 00623002
*                                                                     * 00623502
*          VS2 RELEASE 2 DELETIONS                               Y02072 00624002
*006360,060090-060120,062800,075700,110340,126040,060020-060060, Y02072 00624402
*060150,099450,102700,106200-106600,107000,133500,136100-136200, Y02072 00624802
*137700,120200,120350,124400-124800,125400,126600-127200,        Y02072 00625202
*128200-128400                                                   Y02072 00625602
*                                                                YM1378 00625702
*                                                                YM1158 00625802
*                                                                YM3176 00625902
*                                                                YM2424 00628702
*                                                                YM4640 00628802
*                                                                YM7595 00630802
*                                                                       00631203
*          VS2 RELEASE 3 DELETIONS                                      00631603
*                                                              @Z30TSCF 00631703
*                                                                       00632002
*          RELEASE 20 DELETIONS                                       * 00634802
*                                                                S20201 00637602
*          RELEASE 21 DELETIONS                                       * 00640402
*0340043000,075680,110330,120000,125000,127600-128000,132900-    S21042 00643202
*0340134000,158400-158600                                        S21042 00646002
*0000127600                                                      M1821  00648802
*                                                                       00651602
*STATUS CHANGE LEVEL 002                                                00654402
*                                                                       00657202
*                                                                       00660020
* THIS EXECUTOR RUNS IN TANDEM WITH IGG0191S, WHICH COMPLETES DCB       00680020
* FIELDS THAT ARE KNOWN PRIOR TO GETTING CORE FOR THE IOB/CP'S.         00700020
*                                                                       00720020
* THE MAJOR FUNCTIONS OF THIS EXEC ARE-                                 00740020
*                                                                       00760020
* 1. STRUCTURE EACH IOB/CP WITH THE ADDRESSES AND FLAGS THAT ARE        00820002
*    KNOWN AT OPEN TIME.                                                00840020
* 2. COMPLETE THE RELATED DCB FIELDS.                                   00860002
* 3. REPEAT FOR EACH DCB BEING OPENED.                                  00880002
*                                                                       00900020
* ENTRY POINTS- FROM IGG0191S BY XCTL.                                  00920020
* EXITS- TO IGG01913 BY XCTL.                                           00940020
*                                                                       00960020
*MACROS : ACTION - MODESET, XCTL, XCTLTABL, DMABCOND             Y02072 00970002
*                                                                       00972002
*MACROS : MAPPING - IHACCW,DCBD,IGGBCB,IECDSECS(WTG),IHAFCAUD    Y02072 00974002
*                                                                       00980020
*INPUT-REGISTERS WITH THE ADDRESSES OF THE FOLLOWING-                   01000020
*   THE PARAMETER LIST  (POINTERS TO TOP AND CURRENT ENTRY).            01020020
*   THE WHERE-TO-GO TABLE (WTG) (POINTERS TO TOP AND CURRENT).          01040020
* EXTERNAL ROUTINES- NONE.                                              01060020
* ATTRIBUTES- REENTRANT, REUSABLE, SUPERVISOR STATE, RUNS IN     Y02072 01070002
*             USER KEY UNLESS OTHERWISE SPECIFIED                Y02072 01080002
* TABLES/WORKAREAS-                                                     01100020
*                                                                       01120020
*TABLES/WORKAREAS- WHERE TO GO TABLE (WTG)                              01140020
*      BYTE  0-7  NAME                                                  01160020
*      BYTE  8-10 RELATIVE DISK ADDRESS(TTR) OF FIRST RECORD            01180020
*      BYTE 11    CONCATENATION NUMBER                                  01200020
*      BYTE 12    ZERO                                                  01220020
*      BYTE 13    ALIAS INDICATOR AND USER DATA FIELD DESCRIPTOR.       01240020
*                        ALIAS INDICATOR 1 BIT                          01260020
*                        NUMBER OF TTRS IN USERS DATA FIELD 2 BITS      01280020
*      BYTE 14-16 TTR OF FIRST TEXT RECORD                              01300020
*      BYTE 17    ZERO                                                  01320020
*      BYTE 18-19 TTR OF NOTE LIST OR SCATTER LIST                      01340020
*      BYTE 20    TRANSLATION TABLE                                     01360020
*      BYTE 21    ZERO OR NUMBER OF ENTRIES IN THE NOTE LIST            01380020
*      BYTE 22-23 ATTRIBUTES                                            01400020
*      BYTE 24-26 TOTAL CONTIGUOUS MAIN STORAGE REQUIRED FOR MODULE     01420020
*      BYTE 27-28 LENGTH OF FIRST TEXT RECORD                           01440020
*      BYTE 29    LENGTH OF WTG TABLE (IN DOUBLE WORDS)                 01460020
*      BYTE 30-31 PATH THROUGH LOADS OF ROUTINES                        01480020
*      BYTE 32-34 IDTTR OF EXECUTOR FOR FIRST DCB                       01500020
*      BYTE 35    WORKAREA ADDRESS FOR FIRST DCB                        01520020
*      BYTE 36-39 TABLE OF IDTTR'S                                      01540020
*      BYTE 32+N(8) IDTTR OF EXECUTOR FOR  N TH DCB  (3 BYTES)          01560020
*                   WORKAREA ADDRESS FOR N TH DCB    (1 BYTE )          01580020
*                   IDTTR OF LAST ROUTINE LOAD       (3 BYTES)          01600020
*                   NOT USED                         (1 BYTE)           01620020
*                                                                       01640020
*    WORKAREA- SEE 'FORCORE DSECT' (IECDSECT) IN THIS LISTING           01660020
*                                                                       01680020
*TABLES/WORKAREAS- PARAMETER LIST                                       01700020
*                                                                       01720020
*WORD ZERO                                                              01740020
*      BYTE  0    OPEN ATTRIBUTE  (INPUT, OUTPUT, UPDATE, IN/OUT,       01760020
*                                  OUT/IN, READ BACKWD, LEAVE , REREAD) 01780020
*      BYTES 1-3  DCB ADDRESS FOR FIRST DCB BEING OPENED.               01800020
*                                                                       01820020
*THE PARAMETER LIST HAS A ONE WORD ENTRY FOR EACH DCB BEING OPENED. THE 01840020
*FORMAT IS THE SAME AS WORD ZERO.                                       01860020
*END PARAMETER LIST.                                                    01880020
*                                                                       01900020
* REGISTER CONVENTIONS USED IN ALL OF OPEN-                             01920020
*                                                                       01940020
RDCB     EQU   2                        DCB REGISTER                    01960020
RBASE    EQU   3                        BASE REGISTER                   01980020
RCORE    EQU   4                        I/O SUPPORT WORK AREA           02000020
RPAR     EQU   5                        TOP OF PARAMETER LIST           02100020
RBUFADR  EQU   RPAR                     MAINTAINS ADDR OF NEXT   Y02072 02110002
*                                         AVAILABLE BUFFER       Y02072 02112002
RWTG     EQU   6                        TOP OF WTG TABLE                02120020
RPARC    EQU   7                        CURRENT PARAMETER               02140020
RWTGC    EQU   8                        CURRENT LOAD IN TRANSIENT AREA  02160020
RTIOT    EQU   9                        USED AS A WORK REG              02180020
RIOB     EQU   RTIOT                    USED AS IOB BASE REG WITH THE   02200020
*                                       IOB OVERLAY FROM FORECORE.      02220020
RUCB     EQU   10                       USED AS A WORK REG              02240020
RCPSIZE  EQU   RUCB                     USED TO CALCULATE AND HOLD THE  02260020
*                                       CHANNEL PGM SIZE.               02280020
RDEB     EQU   11                       DEB BASE REG.                   02300020
RB       EQU   12                       WORK REG.                       02320020
RCPBASE  EQU   RB                       CHANNEL PGM BASE REG USED WITH  02340020
*                                       'CPSEGMAP' DUMMY SECTION.       02360020
RWK1     EQU   RB                       WORK REGISTER            Y02072 02370002
RC       EQU   13                       WORK REG.                       02380020
RSTEPPER EQU   RC                       POINTS TO THE CURRENT SEARCH    02400020
*                                       ADDRESS OR COUNT FIELD BEING    02420020
*                                       USED FOR CP CONSTRUCTION. WHEN  02440020
*                                       POINTING TO A COUNT FLD THE     02460020
*                                       'COUNTFLD' DUMMY SECTION IS     02480020
*                                       USED BASED ON THIS REG.         02500020
*                                                                       02520020
RE       EQU   0                        WORK REG. VOLATILE ACCROSS SVC. 02540020
RF       EQU   1                        WORK REG. VOLATILE ACCROSS SVC. 02560020
RWK2     EQU   RF                       WORK REGISTER            YM1378 02560402
RD       EQU   14                       WORK REG. VOLATILE ACCROSS SVC. 02580020
RWK3     EQU   RD                       WORK REG                 YM7595 02590002
RJ       EQU   15                       WORK REG. VOLATILE ACCROSS SVC. 02600020
RA       EQU   RJ                       USED AS WORK REG                02605020
RVALCHK  EQU   RA                       VALIDITY CHK CP BASEREG,        02610020
*                                       USES 'VCMAP' DSECT.             02615020
*                                                                       02620020
*                                                                       02640020
* MASK CONFIGURATIONS FOR TESTING THE HI ORDER BYTE OF EACH PARAMETER   02660020
* LIST ENTRY. SIGNIFICANCE IS THE SAME AS THE DEB OPEN ATTRIBUTE FIELD. 02680020
*                                                                       02700020
INPUT    EQU   X'0F'                    TEST MASKED BITS FOR ZEROS.     02720020
OUTPUT   EQU   X'0F'                    TEST MASKED BITS FOR ONES.      02740020
INOUT    EQU   X'03'                                                    02760020
OUTIN    EQU   X'07'                                                    02780020
RDBACK   EQU   X'01'                                                    02800020
UPDAT    EQU   X'04'                                                    02820020
LEAVE    EQU   X'10'                                                    02840020
REREAD   EQU   X'30'                                                    02860020
*                                                                       02880020
* COMMAND CODES FOR THE 2841 CONTROL UNIT.                              02900020
*                                                                       02920020
SRCHEQ   EQU   X'31'                    SEARCH EQUAL ID.                02940020
SRCHEQMT EQU   X'B1'                    SEARCH EQUAL ID IN MULTI-TRACK. 02960020
TIC      EQU   X'08'                    TRANSFER IN CHANNEL.            02980020
WCKD     EQU   X'1D'                    WRITE COUNT, KEY, AND DATA.     03000020
WSCKD    EQU   X'01'                    WRITE SPECIAL, COUNT,KEY,DATA.  03020020
SEEKCYL  EQU   X'0B'                    SEEK CYLINDER.                  03040020
READDATA EQU   X'06'                    READ DATA SINGLE TRACK.         03060020
RDDATAMT EQU   86                       MULTI-TRACK READ DATA.          03080020
READKD   EQU   14                       READ KEY AND DATA.              03100020
READCT   EQU   X'92'                    READ COUNT M/T MODE.            03120020
RDSC     EQU   X'22'                    SET THETA CCW COMMAND           03125020
SETSC    EQU   X'23'                    READ THETA CCW COMMAND          03130020
SDTIC    EQU   X'40'                    SCH DIR TIC                     03135020
*                                                                       03140020
* CHANNEL COMMAND WORD FLAGS.                                           03160020
*                                                                       03180020
SKIP     EQU   X'10'                    SKIP FLAG.                      03200020
SILI     EQU   X'20'                    SUPPRESS INCORRECT LENGTH IND.  03220020
CC       EQU   X'40'                    COMMAND CHAIN.                  03240020
DC       EQU   X'80'                    DATA CHAIN.                     03260020
SILICC   EQU   X'60'                    SILI AND CC TOGETHER            03280020
SILICCSK EQU   X'70'                    SILI, CC, AND SKIP.             03300020
* END CCW FLAGS.                                                        03320020
*                                                                       03340020
* DISPLACEMENTS  AS EQUATES                                             03341020
*                                                                       03342020
D0       EQU   0                        DISPLACEMENT OF ZERO            03343020
D1       EQU   1                        DISPLACEMENT OF ONE             03344020
D2       EQU   2                        DISPLACEMENT OF TWO             03345020
D4       EQU   4                        DISPLACEMENT OF FOUR            03346020
D6       EQU   6                        DISPLACEMENT OF SIX             03347020
D8       EQU   8                        DISPLACEMENT OF EIGHT           03348020
D12      EQU   12                       DISPLACEMENT OF TWELVE          03349020
D15      EQU   15                       DISPLACEMENT OF FIFTEEN         03350020
D16      EQU   16                  DISPLACEMENT OF 16                   03351020
CNTOFF   EQU   7                        CCW COUNT FIELD OFFSET          03352020
SXTN     EQU   16                       ADDITIONAL CHP LENGTH FOR       03353020
*                                       RECORD READY FEATURE            03354020
*                                                                       03360020
* MISCELLANEOUS ITEMS.                                                  03380020
*                                                                       03400020
COMPNOER EQU   X'7F'                   USED TO INIT. ECB.               03420020
DCANDCC  EQU   X'C0'                    USED TO SET IOBFLAG1.           03440020
IDLENGTH EQU   X'05'                    NMBR OF BYTES IN A 'CCHHR'.     03460020
POINT    EQU   X'04'                    DCBMACRF IF NOTE/POINT USED.    03480020
QSAM     EQU   X'01'                    QSAM BIT IN DCBIND2.            03500020
*                                                                       03520020
NPD2     EQU   5                        NOTE/POINT FOR PCI,UPD,T.O.     03540020
EPDT     EQU   9                        EOB FOR T.O.                    03560020
EGP2     EQU   8                        EOB FOR D.A. INPUT.             03580020
*                                                                       03600020
*                                                                       03620020
VALCHK   EQU   X'80'                    MASK TO DETERMINE IF WRITE      03640020
*                                       VALIDITY CHECK OPTION CALLED.   03660020
IOBSIZE  EQU   48                       LENGTH OF A STANDARD IOB WITH   03680020
*                                       BSAM/QSAM/BPAM EXTENSION.       03700020
IOBDBLWD EQU   6                        NMBR OF DBL WDS IN IOB.         03720020
OFFSW    EQU   24                       OFFSET OF CCW THAT WRITES DATA. 03740020
OFFSR    EQU   32                       OFFSET OF THE READ CCW THAT     03760020
*                                       RECEIVES THE BLOCK LENGTH TO    03780020
*                                       BE READ.                        03800020
CPSEGLEN EQU   32                       LENGTH OF ONE CP SEGMENT.       03820020
NOTZERO  EQU   7                        CONDITION MASK USED AFTER       03840020
*                                       ARITHMETIC INSTRUCTIONS FOR THE 03860020
*                                       NOT-ZERO TEST.                  03880020
BBCCHH   EQU   6                        MIN. SEEK LENGTH.               03900020
*                                                                       03920020
ZERO     EQU   X'00'                    AN IMMEDIATE BYTE OF ZERO'S.    03940020
B1       EQU   1                        BYTE COUNT OF ONE               03941020
ONE      EQU   1                        CONSTANT OF ONE                 03942020
TWO      EQU   2                        CONSTANT OF TWO                 03943020
B5       EQU   5                        BYTE COUNT OF FIVE              03944020
*                                                                       03945020
NORCDRY  EQU   X'20'                    NO RECORD READY MASK            03946020
RCDRYSL  EQU   48                       SEG LENGTH WHEN USING RCD       03947020
*                                       READY FEATURE                   03948020
*                                                                       03949020
*                                                                       03950020
*                                                                       03951020
VRCDS    EQU   X'40'                    V TYPE RCD MSK                  03952020
*                                                                       03953020
*                                                                       03954020
EIGHT    EQU   8                        LENGTH OF A COUNT FIELD.        03960020
ANYZERO  EQU   14                       MASK FOR MIXED OR ZEROS.        03980020
FIRST    EQU   X'01'                    USED TO SET IOB FLAG IN FIRST   04000020
*                                       IOB AND INIT. 'R'.              04020020
READCPL  EQU   40                       NMBR OF BYTES IN READ CP.       04040020
RCPDBLWD EQU   5                        NMBR OF DBL WDS IN RCP.         04060020
REMNANT  EQU   READCPL-OFFSR            OFFSR+REMNANT=READCPL.          04080020
OPCODE   EQU   0                        OFFSET OF CCW OPCODE(IN CCW).   04100020
ADDRESS  EQU   0                        OFFSET OF ADDRESS IN CCW        04120020
*                                       (IMPLIES THAT THE ADDRESS MUST  04140020
*                                       BE PUT IN BEFORE THE OP CODE)   04160020
FLAGS    EQU   4                        CCW FLAG BYTE.                  04180020
LENFLD   EQU   6                        START OF LENGTH FLD IN CCW.     04200020
U        EQU   X'C0'                    CODE FOR DCBRECFM=U             04220020
OABD062  EQU   62                                                S21042 04230021
ONEIOB   EQU   1                        USED TO CHECK FOR 1 IOB  YM1158 04230402
*                                                                       04240020
         BALR  RBASE,0                  ESTABLISH ADDRESSABILITY.       04260020
         USING SOP6,RBASE                                               04280020
         USING FORCORE,RCORE            OPEN WKAREA              S21042 04300021
         USING IHADCB,RDCB              DCB ADDRESSABILITY.             04320020
*                                                                       04340020
*                                                                       04360020
SOP6     EQU   *                                                        04380020
*                                                                       04400020
         B     BEGIN                    BRANCH AROUND MODULE ID  YM4640 04400102
         DC    C'IGG0199K'              MODULE NAME              YM4640 04400202
         DC    C'@Z30TSCF'              LAST SHIP CODE         @Z30TSCF 04400303
         DC    C'10/18/74'              LAST SHIP DATE         @Z30TSCF 04400403
BEGIN    DS    0H                       END OF MODULE ID         YM4640 04400502
         L     RDCB,0(RPARC)            GET DCB ADDRESS FROM PARM. LIST 04420020
         L     RDEB,DCBDEBAD            DEB ADDRESSABILITY.             04440020
         L     RCORE,D4(RWTGC)          GET WORK AREA ADDR              04450020
         LA    RDCB,0(RDCB)             HOUSEKEEP HI BYTE.              04480020
         ST    RPAR,DXREGSAV            SAVE REG SO IT CAN BE    Y02072 04530002
*                                         AS RBUFADR             Y02072 04580002
         SR    RUCB,RUCB                CLEAR REG                       04680020
         IC    RUCB,DCBNCP              GET NO. OF IOBS REQUIRED        04880020
         IF    DCBCIND2,ISNOT=QSAM,GOTO=SOP6L12                         05080020
         IC    RUCB,DCBBUFNO            IF QSAM USE BUFNO               05280020
SOP6L12  EQU   *                                                        05480020
         L     RIOB,DCBIOBA             GET FIRST IOB ADDRESS.          06000020
         MODESET  KEYADDR=DXUKEY,WORKREG=12 GET INTO USER KEY    Y02072 06006402
         USING SAMSIOB,RIOB            IOB ADDRESSABILITY READY.        06020020
         MVI   FLAG,FIRST               FLAG FIRST IOB             DM0I 06030020
*                                                                       06040020
BUILDIOB EQU   *                                                        06060020
*                                                                       06080020
* RIOB POINTS TO START OF AN IOB. USING THIS AS A BASE, GET THE CP      06100020
* START ADDRESS AND THE ADDRESS OF THE COUNT FIELDS AND S.A.'S.         06120020
*                                                                       06140020
*                                                                       06160020
         MVI   ECB,COMPNOER            INIT. ECB FOR QSAM.              06180020
         LA    RF,ECB                   INITIALIZE THE                  06200020
         ST    RF,IOBECBPT              ECB POINTER.                    06220020
*                                                                       06240020
         OI    IOBFLAG1,DCANDCC         INDICATE COMMAND AND DATA CHAIN 06260020
         DROP  RIOB                                              Y02072 06262002
         L     RWK1,DXUDCBAD            GET USERS DCB ADDRESS    Y02072 06270002
         USING SAMSIOB,RIOB                                      Y02072 06272002
         ST    RWK1,IOBDCBPT-1          INIT DCB PT IN IOB.      Y02072 06280002
         MVC   IOBSEEK(8),DCBFDAD       INIT. ALL IOB FDAD'S. SUPPORTS  06286020
*                                       EVERYBODY                Y02072 06292002
         LA    RCPBASE,CHANPGM          GET CHP ADDR                    06296020
         ST    RCPBASE,IOBSTART-D1      PUT IN IOB                      06300020
*                                                                       06304020
* TEST FOR INPUT ONLY                                                   06308020
*                                                                       06312020
         USING DEB,RDEB                 DEB ADDRESSABILITY              06316020
         IF    DEBOPATB,ISNOT=OUTPUT,GOTO=RCPREQD                       06320020
         DROP  RDEB                                                     06330020
BUILDWCP EQU   *                                                        06340020
         SR    RCPBASE,RCPBASE         NEEDED ON 2ND PASS.              06360020
         IC    RCPBASE,DCBWCPO          NEED OFFSET TO BUILD            06380020
         AR    RCPBASE,RIOB             WRITE CP BASE ADDRESS.          06400020
         USING WCPMAP,RCPBASE                                           06440020
         SR    RSTEPPER,RSTEPPER       NEEDED ON 2ND PASS.              06460020
         IC    RSTEPPER,DCBWCPL         BUILD ADDRESS OF COUNT FIELDS   06480020
         SLL   RSTEPPER,3               APPENDED TO WCP.                06500020
         AR    RSTEPPER,RCPBASE         ADDRESS OF FIRST COUNT FIELD.   06520020
*                                                                       06530020
         USING COUNTFLD,RSTEPPER                                        06540020
*                                                                       06560020
*   RIOB = IOB ADDRESS.                                                 06580020
*   RCPBASE = CHANNEL PROGRAM ADDRESS.                                  06600020
*   RSTEPPER = COUNT FIELD AND S.A. ADDRESS.                            06620020
*                                                                       06640020
* IOB INITIALIZED EXCEPT FOR LINK FIELD.                                06660020
*                                                                       06680020
* BUILD WRITE CHANNEL PROGRAMS.  THE CORRECT NUMBER OF CP SEGMENTS IS   06700020
* THAT WHICH CAN BE BUILT UP TO THE FIRST COUNT FIELD APPENDED TO THIS  06720020
* IOB.                                                                  06740020
*                                                                       06760020
*                                                                       06770020
* CHECK FOR RCD READY FEATURE AND SET UP SET THETA COMMAND IF           06780020
* THE FEATURE IS ON ALL THE DATA SETS DEVICES                           06790020
*                                                                       06800020
*                                                                       06805020