         TITLE 'IGG0191H, LEVEL 2 EXEC FOR D.A. WITH TRK OVFLOW.'       00032002
         MACRO                                                          00034002
&NAME    IF    &A,&IS=,&ISNOT=,&GOTO=                                   00040000
         LCLB  &NOERR                                                   00060000
&NOERR   SETB  1                                                        00080000
         AIF   ('&A' NE '').SKIP                                        00100000
         MNOTE 'TEST  ADDRESS NOT SPECIFIED.'                           00120000
&NOERR   SETB  0                                                        00140000
.SKIP    AIF   ('&GOTO' NE '').SKIP2                                    00160000
         MNOTE 'BRANCH ADDRESS MISSING.'                                00180000
&NOERR   SETB  0                                                        00200000
.SKIP2   AIF   ('&IS' NE '' OR '&ISNOT' NE '').SKIP3                    00220000
         MNOTE 'TEST CONDITION NOT SPECIFIED.'                          00240000
&NOERR   SETB  0                                                        00260000
.SKIP3   AIF   (&NOERR).SKIP4                                           00280000
         MEXIT                                                          00300000
.SKIP4   AIF   ('&IS' EQ '').NOIS                                       00320000
***                                                                     00340000
&NAME    TM    &A,&IS                                                   00360000
         BO    &GOTO                                                    00380000
***                                                                     00400000
         MEXIT                                                          00420000
.NOIS    ANOP                                                           00440002
***                                                                     00460000
&NAME    TM    &A,&ISNOT                                                00480000
         BZ    &GOTO                                                    00500000
***                                                                     00520000
         MEND                                                           00540000
IGG0191H CSECT                                                          00560000
*                                                                       00580000
*                                                                       00610002
*MODULE NAME - IGG0191H                                          Y02072 00612002
*                                                                       00614002
*DESCRIPTIVE NAME - BUILD IOBS                                   Y02072 00616002
*                                                                       00618002
*COPYRIGHT - NONE                                                Y02072 00618402
*                                                                       00618802
*CHANGE ACTIVITY - AS FOLLOWS:                                   Y02072 00619202
*                                                                       00619602
*          VS2 RELEASE 2 DELETIONS                               Y02072 00620402
*005500,044300,044420,044600-044720,060090-060120,062800,        Y02072 00620802
*075720,110370,126040,120200,120350,124400-124800,125400         Y02072 00620902
*100400,110340-110350,106000                                     YM1086 00622902
*                                                                YM2424 00624902
*                                                                YM4640 00625002
*                                                                YM7595 00627002
*                                                                       00627403
*          VS2 RELEASE 3 DELETIONS                                      00627803
*                                                              @Z30TSCF 00628203
*          RELEASE 20 DELETIONS                                       * 00629000
*0973020200-020800,043000,044600,045000-059800,063000,064200,    S20201 00629120
*0973067800-068000,068200,069200,070400,075800,076800,077800,    S20201 00629220
*0973079600,089200,092400,093400,097200,099200,100600,102200-    S20201 00629320
*0973102400,110400,111000,111400-111600,119600,125600-125800,    S20201 00629420
*0973126000-126200,129400,134800-135200,138000-138400,145600-    S20201 00629520
*0973145800                                                      S20201 00629620
*          RELEASE 21 DELETIONS                                       * 00630000
*0091042300,043000,075700,110360,120000,125000,127600-127700,    S21042 00630321
*0091132900,157400                                               S21042 00630621
*                                                                       00631002
*STATUS CHANGE LEVEL 007                                                00636001
*                                                                       00640000
*                                                                       00660000
* THIS EXECUTOR RUNS IN TANDEM WITH IGG0191S, WHICH COMPLETES DCB       00680000
* FIELDS THAT ARE KNOWN PRIOR TO GETTING CORE FOR THE IOB/CP'S.         00700000
*                                                                       00720000
* THE MAJOR FUNCTIONS OF THIS EXEC ARE-                                 00740000
*                                                                       00760000
* 1. STRUCTURE EACH IOB/CP WITH THE ADDRESSES AND FLAGS THAT ARE        00820002
*    KNOWN AT OPEN TIME.                                                00840000
* 2. COMPLETE THE RELATED DCB FIELDS.                                   00860002
* 3. REPEAT FOR EACH DCB BEING OPENED.                                  00880002
*                                                                       00900000
* ENTRY POINTS- FROM IGG0191S BY XCTL.                                  00920000
* EXITS- TO IGG01913 BY XCTL.                                           00940000
*                                                                       00960000
*                                                                       00980000
*INPUT-REGISTERS WITH THE ADDRESSES OF THE FOLLOWING-                   01000000
*   THE PARAMETER LIST  (POINTERS TO TOP AND CURRENT ENTRY).            01020000
*   THE WHERE-TO-GO TABLE (WTG) (POINTERS TO TOP AND CURRENT).          01040000
* EXTERNAL ROUTINES- NONE.                                              01060000
* ATTRIBUTES- REENTRANT, REUSABLE, RUNS IN USER KEY UNLESS       Y02072 01080002
*             OTHERWISE SPECIFIED, SUPER STATE                   Y02072 01090002
* TABLES/WORKAREAS-                                                     01100000
*                                                                       01110002
*MACROS : ACTION - MODESET, XCTL, XCTLTABL                       Y02072 01112002
*                                                                       01114002
*MACROS : MAPPING - IHACCW, IGGBCB, IECDSECS(DCB,WTG), IHAFCAUD         01116002
*                                                                       01120000
*TABLES/WORKAREAS- WHERE TO GO TABLE (WTG)                              01140000
*      BYTE  0-7  NAME                                                  01160000
*      BYTE  8-10 RELATIVE DISK ADDRESS(TTR) OF FIRST RECORD            01180000
*      BYTE 11    CONCATENATION NUMBER                                  01200000
*      BYTE 12    ZERO                                                  01220000
*      BYTE 13    ALIAS INDICATOR AND USER DATA FIELD DESCRIPTOR.       01240000
*                        ALIAS INDICATOR 1 BIT                          01260000
*                        NUMBER OF TTRS IN USERS DATA FIELD 2 BITS      01280000
*      BYTE 14-16 TTR OF FIRST TEXT RECORD                              01300000
*      BYTE 17    ZERO                                                  01320000
*      BYTE 18-19 TTR OF NOTE LIST OR SCATTER LIST                      01340000
*      BYTE 20    TRANSLATION TABLE                                     01360000
*      BYTE 21    ZERO OR NUMBER OF ENTRIES IN THE NOTE LIST            01380000
*      BYTE 22-23 ATTRIBUTES                                            01400000
*      BYTE 24-26 TOTAL CONTIGUOUS MAIN STORAGE REQUIRED FOR MODULE     01420000
*      BYTE 27-28 LENGTH OF FIRST TEXT RECORD                           01440000
*      BYTE 29    LENGTH OF WTG TABLE (IN DOUBLE WORDS)                 01460000
*      BYTE 30-31 PATH THROUGH LOADS OF ROUTINES                        01480000
*      BYTE 32-34 IDTTR OF EXECUTOR FOR FIRST DCB                       01500000
*      BYTE 35    WORKAREA ADDRESS FOR FIRST DCB                        01520000
*      BYTE 36-39 TABLE OF IDTTR'S                                      01540000
*      BYTE 32+N(8) IDTTR OF EXECUTOR FOR  N TH DCB  (3 BYTES)          01560000
*                   WORKAREA ADDRESS FOR N TH DCB    (1 BYTE )          01580000
*                   IDTTR OF LAST ROUTINE LOAD       (3 BYTES)          01600000
*                   NOT USED                         (1 BYTE)           01620000
*                                                                       01640000
*    WORKAREA- SEE 'FORCORE DSECT' (IECDSECT) IN THIS LISTING           01660000
*                                                                       01680000
*TABLES/WORKAREAS- PARAMETER LIST                                       01700000
*                                                                       01720000
*WORD ZERO                                                              01740000
*      BYTE  0    OPEN ATTRIBUTE  (INPUT, OUTPUT, UPDATE, IN/OUT,       01760000
*                                  OUT/IN, READ BACKWD, LEAVE , REREAD) 01780000
*      BYTES 1-3  DCB ADDRESS FOR FIRST DCB BEING OPENED.               01800000
*                                                                       01820000
*THE PARAMETER LIST HAS A ONE WORD ENTRY FOR EACH DCB BEING OPENED. THE 01840000
*FORMAT IS THE SAME AS WORD ZERO.                                       01860000
*END PARAMETER LIST.                                                    01880000
*                                                                       01900000
* REGISTER CONVENTIONS USED IN ALL OF OPEN-                             01920000
*                                                                       01940000
RDCB     EQU   2                        DCB REGISTER                    01960000
RBASE    EQU   3                        BASE REGISTER                   01980000
RCORE    EQU   4                        I/O SUPPORT WORK AREA           02000000
RPAR     EQU   5                        TOP OF PARAMETER LIST           02100000
RBUFADR  EQU   RPAR                     MAINTAINS ADDR OF NEXT   Y02072 02110002
*                                         AVAILABLE BUFFER       Y02072 02112002
RWTG     EQU   6                        TOP OF WTG TABLE                02120000
RPARC    EQU   7                        CURRENT PARAMETER               02140000
RWTGC    EQU   8                        CURRENT LOAD IN TRANSIENT AREA  02160000
RTIOT    EQU   9                        USED AS A WORK REG              02180000
RIOB     EQU   RTIOT                    USED AS IOB BASE REG WITH THE   02200000
*                                       IOB OVERLAY FROM FORECORE.      02220000
RUCB     EQU   10                       USED AS A WORK REG              02240000
RCPSIZE  EQU   RUCB                     USED TO CALCULATE AND HOLD THE  02260000
*                                       CHANNEL PGM SIZE.               02280000
RDEB     EQU   11                       DEB BASE REG.                   02300000
RB       EQU   12                       WORK REG.                       02320000
RCPBASE  EQU   RB                       CHANNEL PGM BASE REG USED WITH  02340000
*                                       'CPSEGMAP' DUMMY SECTION.       02360000
RC       EQU   13                       WORK REG.                       02380000
RSTEPPER EQU   RC                       POINTS TO THE CURRENT SEARCH    02400000
*                                       ADDRESS OR COUNT FIELD BEING    02420000
*                                       USED FOR CP CONSTRUCTION. WHEN  02440000
*                                       POINTING TO A COUNT FLD THE     02460000
*                                       'COUNTFLD' DUMMY SECTION IS     02480000
*                                       USED BASED ON THIS REG.         02500000
*                                                                       02520000
RE       EQU   0                        WORK REG. VOLATILE ACCROSS SVC. 02540000
RF       EQU   1                        WORK REG. VOLATILE ACCROSS SVC. 02560000
RD       EQU   14                       WORK REG. VOLATILE ACCROSS SVC. 02580000
RWK1     EQU   RD                       WORK REGISTER            Y02072 02590002
RJ       EQU   15                       WORK REG. VOLATILE ACCROSS SVC. 02600000
RA       EQU   RJ                       USED AS WORK REG         S20201 02605020
RVALCHK  EQU   RA                       VALIDITY CHK CP BASEREG, S20201 02610020
*                                       USES 'VCMAP' DSECT.             02615020
*                                                                       02620000
*                                                                       02640000
* MASK CONFIGURATIONS FOR TESTING THE HI ORDER BYTE OF EACH PARAMETER   02660000
* LIST ENTRY. SIGNIFICANCE IS THE SAME AS THE DEB OPEN ATTRIBUTE FIELD. 02680000
*                                                                       02700000
INPUT    EQU   X'0F'                    TEST MASKED BITS FOR ZEROS.     02720000
OUTPUT   EQU   X'0F'                    TEST MASKED BITS FOR ONES.      02740000
INOUT    EQU   X'03'                                                    02760000
OUTIN    EQU   X'07'                                                    02780000
RDBACK   EQU   X'01'                                                    02800000
UPDAT    EQU   X'04'                                                    02820000
LEAVE    EQU   X'10'                                                    02840000
REREAD   EQU   X'30'                                                    02860000
*                                                                       02880000
* COMMAND CODES FOR THE 2841 CONTROL UNIT.                              02900000
*                                                                       02920000
SRCHEQ   EQU   X'31'                    SEARCH EQUAL ID.                02940000
SRCHEQMT EQU   X'B1'                    SEARCH EQUAL ID IN MULTI-TRACK. 02960000
TIC      EQU   X'08'                    TRANSFER IN CHANNEL.            02980000
WCKD     EQU   X'1D'                    WRITE COUNT, KEY, AND DATA.     03000000
WSCKD    EQU   X'01'                    WRITE SPECIAL, COUNT,KEY,DATA.  03020000
SEEKCYL  EQU   X'0B'                    SEEK CYLINDER.                  03040000
READDATA EQU   X'06'                    READ DATA SINGLE TRACK.         03060000
RDDATAMT EQU   86                       MULTI-TRACK READ DATA.          03080000
READKD   EQU   14                       READ KEY AND DATA.              03100000
READCT   EQU   X'92'                    READ COUNT M/T MODE.            03120000
RDSC     EQU   X'22'                    SET THETA CCW COMMAND    S20201 03126020
SETSC    EQU   X'23'                    READ THETA CCW COMMAND   S20201 03132020
*                                                                       03140000
* CHANNEL COMMAND WORD FLAGS.                                           03160000
*                                                                       03180000
SKIP     EQU   X'10'                    SKIP FLAG.                      03200000
SILI     EQU   X'20'                    SUPPRESS INCORRECT LENGTH IND.  03220000
CC       EQU   X'40'                    COMMAND CHAIN.                  03240000
DC       EQU   X'80'                    DATA CHAIN.                     03260000
SILICC   EQU   X'60'                    SILI AND CC TOGETHER            03280000
SILICCSK EQU   X'70'                    SILI, CC, AND SKIP.             03300000
* END CCW FLAGS.                                                        03320000
*                                                                       03340000
* DISPLACEMENTS  AS EQUATES                                             03341020
*                                                                       03342020
D0       EQU   0                        DISPLACEMENT OF ZERO     S20201 03343020
D1       EQU   1                        DISPLACEMENT OF ONE      S20201 03344020
D2       EQU   2                        DISPLACEMENT OF TWO      S20201 03345020
D4       EQU   4                        DISPLACEMENT OF FOUR     S20201 03346020
D6       EQU   6                        DISPLACEMENT OF SIX      S20201 03347020
D8       EQU   8                        DISPLACEMENT OF EIGHT    S20201 03348020
D12      EQU   12                       DISPLACEMENT OF TWELVE   S20201 03349020
D15      EQU   15                       DISPLACEMENT OF FIFTEEN  S20201 03350020
CNTOFF   EQU   7                        CCW COUNT FIELD OFFSET   S20201 03351020
SXTN     EQU   16                       ADDITIONAL CHP LENGTH    S20201 03352020
*                                       FOR                      S20201 03353020
*                                       RECORD READY FEATURE            03354020
*                                                                       03360000
* MISCELLANEOUS ITEMS.                                                  03380000
*                                                                       03400000
COMPNOER EQU   X'7F'                   USED TO INIT. ECB.               03420000
DCANDCC  EQU   X'C0'                    USED TO SET IOBFLAG1.           03440000
IDLENGTH EQU   X'05'                    NMBR OF BYTES IN A 'CCHHR'.     03460000
POINT    EQU   X'04'                    DCBMACRF IF NOTE/POINT USED.    03480000
QSAM     EQU   X'01'                    QSAM BIT IN DCBIND2.            03500000
*                                                                       03520000
NPD2     EQU   5                        NOTE/POINT FOR PCI,UPD,T.O.     03540000
EPDT     EQU   9                        EOB FOR T.O.                    03560000
EGP2     EQU   8                        EOB FOR D.A. INPUT.             03580000
*                                                                       03600000
*                                                                       03620000
VALCHK   EQU   X'80'                    MASK TO DETERMINE IF WRITE      03640000
*                                       VALIDITY CHECK OPTION CALLED.   03660000
IOBSIZE  EQU   48                       LENGTH OF A STANDARD IOB WITH   03680000
*                                       BSAM/QSAM/BPAM EXTENSION.       03700000
IOBDBLWD EQU   6                        NMBR OF DBL WDS IN IOB.         03720000
OFFSW    EQU   24                       OFFSET OF CCW THAT WRITES DATA. 03740000
OFFSR    EQU   32                       OFFSET OF THE READ CCW THAT     03760000
*                                       RECEIVES THE BLOCK LENGTH TO    03780000
*                                       BE READ.                        03800000
CPSEGLEN EQU   32                       LENGTH OF ONE CP SEGMENT.       03820000
NOTZERO  EQU   7                        CONDITION MASK USED AFTER       03840000
*                                       ARITHMETIC INSTRUCTIONS FOR THE 03860000
*                                       NOT-ZERO TEST.                  03880000
BBCCHH   EQU   6                        MIN. SEEK LENGTH.               03900000
*                                                                       03920000
ZERO     EQU   X'00'                    AN IMMEDIATE BYTE OF ZERO'S.    03940000
B1       EQU   1                        BYTE COUNT OF ONE        S20201 03941020
TWO      EQU   2                        CONST OF TWO             S20201 03942020
B5       EQU   5                        BYTE COUNT OF FIVE       S20201 03943020
*                                                                       03944020
NORCDRY  EQU   X'20'                    NO RECORD READY MASK     S20201 03945020
RCDRYSL  EQU   48                       SEG LENGTH WHEN USING    S20201 03946020
*                                       RCD                      S20201 03947020
*                                       READY FEATURE                   03948020
*                                                                       03949020
*                                                                       03950020
*                                                                       03951020
VRCDS    EQU   X'40'                    V TYPE RCD MSK           S20201 03952020
*                                                                       03953020
*                                                                       03954020
EIGHT    EQU   8                        LENGTH OF A COUNT FIELD.        03960000
ANYZERO  EQU   14                       MASK FOR MIXED OR ZEROS.        03980000
FIRST    EQU   X'01'                    USED TO SET IOB FLAG IN FIRST   04000000
*                                       IOB AND INIT. 'R'.              04020000
READCPL  EQU   40                       NMBR OF BYTES IN READ CP.       04040000
RCPDBLWD EQU   5                        NMBR OF DBL WDS IN RCP.         04060000
REMNANT  EQU   READCPL-OFFSR            OFFSR+REMNANT=READCPL.          04080000
OPCODE   EQU   0                        OFFSET OF CCW OPCODE(IN CCW).   04100000
ADDRESS  EQU   0                        OFFSET OF ADDRESS IN CCW        04120000
*                                       (IMPLIES THAT THE ADDRESS MUST  04140000
*                                       BE PUT IN BEFORE THE OP CODE)   04160000
FLAGS    EQU   4                        CCW FLAG BYTE.                  04180000
LENFLD   EQU   6                        START OF LENGTH FLD IN CCW.     04200000
U        EQU   X'C0'                    CODE FOR DCBRECFM=U             04220000
OABD062  EQU   62                                                S21042 04230021
*                                                                       04240000
         BALR  RBASE,0                  ESTABLISH ADDRESSABILITY.       04260000
         USING SOP6,RBASE                                               04280000
         USING FORCORE,RCORE            OPEN COMMON WKAREA       S21042 04300021
         USING IHADCB,RDCB              DCB ADDRESSABILITY.             04320000
*                                                                       04340000
*                                                                       04360000
SOP6     EQU   *                                                        04380000
         B     BEGIN                    BRANCH AROUND MODULE ID  YM4640 04380102
         DC    C'IGG0191H'              MODULE NAME              YM4640 04380202
         DC    C'@Z30TSCF'              LAST SHIP CODE         @Z30TSCF 04380303
         DC    C'10/17/74'              LAST SHIP DATE         @Z30TSCF 04380403
BEGIN    DS    0H                       END OF MODULE ID         YM4640 04380502
*                                                                       04400000
         L     RDCB,0(RPARC)            GET DCB ADDRESS FROM PARM. LIST 04420000
         L     RDEB,DCBDEBAD            DEB ADDRESSABILITY.             04440000
         L     RCORE,D4(RWTGC)          GET WORK AREA ADDR       S20201 04450020
         ST    RPAR,DXREGSAV            SAVE REG SO IT CAN BE    Y02072 04460002
*                                         USED AS RBUFADR        Y02072 04470002
         LA    RDCB,0(RDCB)             HOUSEKEEP HI BYTE.              04480000
         SR    RUCB,RUCB                CLEAR REG                S20201 04680020
         IC    RUCB,DCBNCP              GET NO. OF IOBS REQUIRED S20201 04880020
         IF    DCBCIND2,ISNOT=QSAM,GOTO=SOP6L12                  S20201 05080020
         IC    RUCB,DCBBUFNO            IF QSAM USE BUFNO        S20201 05280020
SOP6L12  EQU   *                                                 S20201 05480020
         L     RIOB,DCBIOBA             GET FIRST IOB ADDRESS.          06000000
         MODESET  KEYADDR=DXUKEY,WORKREG=14 GET INTO USER KEY    Y02072 06008002
         USING SAMSIOB,RIOB            IOB ADDRESSABILITY READY.        06020000
         MVI   FLAG,FIRST               FLAG FIRST IOB             DM0I 06030000
*                                                                       06040000
BUILDIOB EQU   *                                                        06060000
*                                                                       06080000
* RIOB POINTS TO START OF AN IOB. USING THIS AS A BASE, GET THE CP      06100000
* START ADDRESS AND THE ADDRESS OF THE COUNT FIELDS AND S.A.'S.         06120000
*                                                                       06140000
*                                                                       06160000
         MVI   ECB,COMPNOER            INIT. ECB FOR QSAM.              06180000
         LA    RF,ECB                   INITIALIZE THE                  06200000
         ST    RF,IOBECBPT              ECB POINTER.                    06220000
*                                                                       06240000
         OI    IOBFLAG1,DCANDCC         INDICATE COMMAND AND DATA CHAIN 06260000
         DROP  RIOB                                              Y02072 06262002
         L     RWK1,DXUDCBAD            GET USERS DCB ADDR       Y02072 06270002
         USING SAMSIOB,RIOB                                      Y02072 06272002
         ST    RWK1,IOBDCBPT-1          INIT DCB PT IN IOB.      Y02072 06280002
         MVC   IOBSEEK(8),DCBFDAD       INIT. ALL IOB FDAD'S. SUPPORTS  06286013
*                                       EVERYBODY INCLUDING 2321.       06292013
         LA    RCPBASE,CHANPGM          GET CHP ADDR             S20201 06296020
         ST    RCPBASE,IOBSTART-D1      PUT IN IOB               S20201 06300020
*                                                                       06304020
* TEST FOR INPUT ONLY                                                   06308020
*                                                                       06312020
         USING DEB,RDEB                 DEB ADDRESSABILITY       S20201 06316020
         IF    DEBOPATB,ISNOT=OUTPUT,GOTO=RCPREQD                       06320000
         DROP  RDEB                                              S20201 06330020
BUILDWCP EQU   *                                                        06340000
         SR    RCPBASE,RCPBASE         NEEDED ON 2ND PASS.              06360000
         IC    RCPBASE,DCBWCPO          NEED OFFSET TO BUILD            06380000
         AR    RCPBASE,RIOB             WRITE CP BASE ADDRESS.          06400000
         USING WCPMAP,RCPBASE                                           06440000
         SR    RSTEPPER,RSTEPPER       NEEDED ON 2ND PASS.              06460000
         IC    RSTEPPER,DCBWCPL         BUILD ADDRESS OF COUNT FIELDS   06480000
         SLL   RSTEPPER,3               APPENDED TO WCP.                06500000
         AR    RSTEPPER,RCPBASE         ADDRESS OF FIRST COUNT FIELD.   06520000
         USING COUNTFLD,RSTEPPER                                        06540000
*                                                                       06560000
*   RIOB = IOB ADDRESS.                                                 06580000
*   RCPBASE = CHANNEL PROGRAM ADDRESS.                                  06600000
*   RSTEPPER = COUNT FIELD AND S.A. ADDRESS.                            06620000
*                                                                       06640000
* IOB INITIALIZED EXCEPT FOR LINK FIELD.                                06660000
*                                                                       06680000
* BUILD WRITE CHANNEL PROGRAMS.  THE CORRECT NUMBER OF CP SEGMENTS IS   06700000
* THAT WHICH CAN BE BUILT UP TO THE FIRST COUNT FIELD APPENDED TO THIS  06720000
* IOB.                                                                  06740000
*                                                                       06760000
*                                                                       06770020
* CHECK FOR RCD READY FEATURE AND SET UP SET THETA COMMAND IF           06780020
* THE FEATURE IS ON ALL THE DATA SETS DEVICES                           06790020
*                                                                       06800020
*                                                                       06805020
         TM    JFCBMASK+D6,NORCDRY      ANY DEVICES W/O RCD      S20201 06810020
*                                       READY                    S20201 06815020
         BO    NOFET3                   BRANCH IF YES            S20201 06820020
         BAL   RD,SOP6STA               GO BUILD SET SECTOR CCW  S20201 06825020
         AH    RCPBASE,DBLWDLEN         INCR BASE FOR SET SECTOR S20201 06830020
NOFET3   EQU   *                                                 S20201 06835020
CCW1     EQU   *                                                        06840000