         MACRO                                                          00050002
&NAME    IGGBISAV                                                       00100002
&NAME    DSECT                                                          00110002
*    02/20/73          LEVEL=00                                         00150002
**********************************************************************  00200002
*    SAVE AREA FOR BISAM ASYNCHRONOUS AND PRIVILEGED ROUTINES.       *  00250002
**********************************************************************  00300002
IGGRETRN DS    A                        RETURN ADDRESS                  00350002
IGGPDEB  DS    A                        VALIDATED DEB ADDRESS           00400002
IGGUKEY  DS    X                        USER STORAGE PROTECT KEY        00450002
IGGRESRV DS    XL3                      RESERVED                        00500002
IGGREGS  DS    16F                      PROTECTED REGISTER SAVE AREA    00550002
IGGSIZE  EQU   *-IGGRETRN               SIZE OF PROTECTED SAVE AREA     00600002
         MEND                                                           00650002
