         MACRO                                                          02000020
&NAME    IGGBISAM &OPTCD=                                               04000020
         GBLB   &CPOPS                                                  06000020
         GBLC  &LIB                                                     06000800
*    01/05/73          LEVEL=01                                         06000902
.*         RELEASE OS/VS2-02 DELETIONS/CHANGES                          06001002
         AIF    (&CPOPS).NOCPOPS                                        06010020
&CPOPS   SETB   1                                                       06020020
         IGGCPOPS                                                       06030020
.NOCPOPS ANOP                                                           06040020
&NAME    DSECT                                                          06050020
DCWFCP4  DS    A                        ADDRESS FIRST AVAILABLE CP4-5-6 08000020
DCWFCP7  DS    A                        ADDRESS FIRST AVAILABLE CP7     10000020
DCWNUCPS DS    CL1                      NO. UNSCHED IOBS FOR HI LVL IX  12000020
DCWNUCP4 DS    CL1                      NO. UNSCHED IOBS FOR CP4-5-6    14000020
DCWNUCP7 DS    CL1                      NO. UNSCHED IOBS FOR CP7        16000020
DCWNLSD  DS    CL1                      NO.HI LVL INDEXES SRCHED ON DEV 18000020
DCWFIOBU DS    A                        A(FIRST UNSCHED IOB)            20000020
DCWLIOBU DS    A                        A(LAST UNSCHED IOB)             22000020
DCWFUPDI DS    A                        A(FIRST IOB ON UPDATE Q)        24000020
DCWLUPDI DS    A                        A(LAST IOB ON UPDATE Q)         26000020
DCWHIAV  DS    CL1                      B0 ON MEANS HI LVL IND CP AVAIL 28000020
*                                       B1 ON MEANS HI LVL IND IN CORE  30000020
DCWWKNI  DS    CL1                      BO ON MEANS WRITE KN IN PROCESS 32000020
*                                       B1 FIRST TIME SWITCH            34000020
*                                       B2 SAME MODULE SWITCH           36000020
*                                       B3 ADD TO END USE - CP11,13     38000020
*                                       B4 END BECAUSE OF EOF - CP12,13 40000020
*                                       B5 CP11 - 1ST USE BY GIVEN WKN  42000020
*                                                                       44000020
DCWNLEVC DS    CL1                      COUNTER USED BY WRITE KN APP    46000020
DCWNUWKN DS    CL1                      NO. OF IOBS AWAITING W KN CP    48000020
DCWMSHIL DS    A                        LAST ACTIVE ENTRY HI IND W KN   50000020
DCWHIRPS DS    CL1                      DCBHIRPD OR DCBHIRSH            52000020
DCWNACT  DS    CL1                      NO. NON-W KN MACROS BEFORE W KN 54000020
DCWSIZE  DS    CL2                      SIZE OF DCB WA+ CP'S+ WKN WA    56000020
DCWOPCLS DS    CL8                      DATA SAVED BY COMMON OPEN       58000020
DCWFIOBE DS    0CL4                                                     60000020
DCWERRCT DS    1C                       NO. OF SLOTS ON ERROR Q         62000020
         DS    3C                       A(FIRST IOB ON ERRORQ)          64000020
DCWLIOBE DS    A                        A(LAST IOB ON ERROR Q)          66000020
DCWSIOA  DS    A                        SECOND SIO APPENDAGE (RPS ONLY) 68000020
DCWDCBFA DS    F                        DCB FIELD AREA PTR              70000020
DCWIPG   DS    H                        (VLR) PRIME RCD OVHD - NON LAST 74000020
DCWLPG   DS    H                        (VLR) PRIME RCD OVHD - LAST     76000020
DCWIOG   DS    H                        (VLR) OVFLO RCD OVHD - NON LAST 78000020
DCWLOG   DS    H                        (VLR) OVFLO RCD OVHD - LAST     80000020
DCWLEN   EQU   *-&NAME                 LENGTH OF W.A. IN BYTES          82303900
         MEND                                                           84000020
