         MACRO                                                          07000020
&NAME    IGGCP47 &OPTCD=                                                14000020
         GBLB    &CPOPS                                                 14010020
.*          RELEASE 23 DELETIONS/CHANGES                                14011020
.*          RELEASE 22 DELETIONS/CHANGES                                14012020
.*          RELEASE 21 DELETIONS/CHANGES                                14013020
         AIF     (&CPOPS).NOCPOPS                                       14020020
&CPOPS   SETB    1                                                      14030020
         IGGCPOPS                                                       14040020
.NOCPOPS ANOP                                                           14050020
&NAME    DSECT                                                          21000020
CP4      DS    0D                                                       28000020
         IGGCP4                                                         35000020
CP5      DS    0D                                                       42000020
         IGGCP5  OPTCD=&OPTCD                                           49000020
CP6      DS    0D                                                       56000020
         IGGCP6  OPTCD=&OPTCD                                           63000020
CP7      DS    0D                                                       70000020
         IGGCP7  OPTCD=&OPTCD                                           77000020
         MEND                                                           84000020
