         MACRO                                                          01000020
&NAME    IGGDEBD                                                        02000020
*    03/20/73          LEVEL=01                                         02010002
DEBAVT   DSECT                                                          02040021
**********************************************************************  02050021
*   APPENDAGE VECTOR TABLE FOR DEB. CONTAINS PTRS TO THE APPENDAGES  *  02060021
*   USED BY IOS.                                                     *  02070021
**********************************************************************  02080021
         SPACE 3                                                        02090021
DEBEOEA  DS    A                        END OF EXTENT APPENDAGE         02100021
DEBSIOA  DS    A                        START I/O APPENDAGE             02110021
DEBPCIA  DS    A                        PROGRAM CONTROLLED INTERRUPT    02120021
DEBCEA   DS    A                        CHANNEL END APPENDAGE           02130021
DEBXCEA  DS    A                        ABNORMAL END APPENDAGE          02140021
         SPACE 5                                                        02150021
*******************************************************                 02160021
DEBEXT   DSECT                                                          02170021
*                                       EXTENTION CONTAINS POINTERS     02180021
*                                       TO BE PROTECTED FROM PROBLEM    02190021
*                                       PROGRAM                         02200021
DEBDCBFA DS    A                        DCB FIELD AREA ADDRESS          02210002
DEBPUT   DS    0A                       ADDR OF PUT MODULE              02240021
DEBGET   DS    0A                       ADDR OF GET MODULE              02250021
DEBDISAD DS    A                        ADDR OF PRIV MACRO MODULE       02260021
DEBRPSL  DS    0A                       ADDRESS OF RPS SIO MODULE       02264002
LOADEXT  EQU   *+4-DEBEXT               LENGTH OF LOAD EXTENSION        02266000
DEBWKPT4 DS    A                        SAME AS DCBWKPT4                02280021
DEBWKPT5 DS    A                        SAME AS DCBWKPT5                02290021
DEBFREED DS    0A                       ADDR OF DYN BUFF MODULE         02300021
DEBCEVEC DS    0BL24                    CHAN END VECT TBL CONSISTING OF 02310021
DEBCREAD DS    A                        READ                            02320021
DEBRPSIO DS    0A                       ADDR OF SECONDARY RPS SIO APP   02330021
DEBCSETL DS    A                        SETL                            02340021
DEBSIOA2 DS    0A                       ADDR OF SECONDARY SIO APP       02344000
BISAMEXT EQU   *+4-DEBEXT               EXTENSION LENGTH OF BISAM       02346000
DEBCWRIT DS    A                        WRITE                           02360021
DEBCCHK  DS    A                        WRITE VAL. CHECK                02370021
DEBCREWT DS    A                        RE-WRITE                        02380021
DEBCRECK DS    A                        RE-CHECK                        02390021
DEBABVEC DS    0BL24                    ABNORMAL END VECT TBL CONSISTS  02400021
*                                       OF THE FOLLOWING-               02410021
DEBAREAD DS    A                        READ                            02420021
DEBASETL DS    A                        SETL                            02430021
DEBAWRIT DS    A                        WRITE                           02440021
DEBACHK  DS    A                        WRITE VAL. CHECK                02450021
DEBAREWT DS    A                        RE-WRITE                        02460021
DEBARECK DS    A                        RE-CHECK                        02470021
DEBRPSS  DS    A                        SECONDARY SCAN SIO APP          02474000
SCANEXT  EQU   *-DEBEXT                                                 02480021
W1CEVECT EQU   DEBCEVEC                                                 02490021
W1CEREAD EQU   DEBCREAD                                                 02500021
W1CESETL EQU   DEBCSETL                                                 02510021
W1CEWRIT EQU   DEBCWRIT                                                 02520021
W1CECHK  EQU   DEBCCHK                                                  02530021
W1CEREWT EQU   DEBCREWT                                                 02540021
W1CERECK EQU   DEBCRECK                                                 02550021
W1ABVECT EQU   DEBABVEC                                                 02560021
W1ABREAD EQU   DEBAREAD                                                 02570021
W1ABSETL EQU   DEBASETL                                                 02580021
W1ABWRIT EQU   DEBAWRIT                                                 02590021
W1ABCHK  EQU   DEBACHK                                                  02600021
W1ABREWT EQU   DEBAREWT                                                 02610021
W1ABRECK EQU   DEBARECK                                                 02620021
&NAME    DSECT                                                          03000020
DEBNMSUB DS    0BL1                    = SUBRTNS LOADED BY OPEN         04000020
DEBTCBAD DS    A                       TCB POINTER                      05000020
DEBAMLNG DS    0BL1                    LENGTH OF ACCESS METHOD SECTION  06000020
DEBDEBAD DS    A                       POINTER TO NEXT DEB IN TASK      07000020
DEBOFLGS DS    0BL1                    DATA SET STATUS FLAGS            08000020
*                                      B0.B1 01=DISP=OLD                09000020
*                                            10=DISP=MOD                10000020
*                                            11=DISP=NEW                11000020
*                                      B2 EOV OR EOF                    12000020
*                                      B3 PARTIAL RELEASE               13000020
*                                      B4 DCB MODIFICATION              14000020
*                                      B5 SPLIT CYLINDER                15000020
*                                      B6 NON STANDARD LABELS           16000020
*                                      B7 MAG TAPE- USE REDUCED ERP     17000020
DEBIRBAD DS    A                       POINTER TO IRB FOR ASYNC EXIT    18000020
DEBOPATB DS    0BL1                    TYPE OF I/O                      19000020
*                                      B0 SYSABEND OR SYSUDUMP DS       20000020
*                                      B1 0 (ALWAYS)                    21000020
*                                      B2.B3 01=REREAD                  22000020
*                                            11=LEAVE                   23000020
*                                      B4.B5.B6.B7 0000=INPUT           24000020
*                                                  1111=OUTPUT          25000020
*                                                  0011=INOUT           26000020
*                                                  0111=OUTIN           27000020
*                                                  0001=RDBACK          28000020
*                                                  0100=UPDATE          29000020
DEBQSCNT DS    BL1                     PURGE QUIESCE COUNT              30000020
         DS    H                       RESERVED                         31000020
DEBNMEXT DS    0BL1                    NUMBER OF EXTENTS CONSTRUCTED    32000020
DEBUSRPG DS    A                       AD OF 1ST IOB IN USR PURGE CHAIN 33000020
DEBPRIOR DS    0BL1                    DISPATCHING PRIORITY             34000020
DEBEDBAD DS    A                       POINTER TO PARMLIST OF PURGE ECB 35000020
DEBPROTG DS    0BL.4                   TASK PROTECTION FLAG             36000020
DEBDEBID DS    0BL.4'1111'             X'F' TO IDENTIFY AS A DEB        37000020
DEBDCBAD DS    A                       POINTER TO CORRESPONDING DCB     38000020
DEBEXSCL DS    0BL1                    SCALE FOR SIZE OF DEV SECTION    39000020
DEBAPPAD DS    A                       POINTER TO APPENDAGE VECTOR TBL  40000020
* ISAM DEPENDENT SECTION   (M=0 EXTENT NUMBER)                          41000020
DEBNIEE  DS    0BL1                    = INDEX EXTENTS                  42000020
DEBFIEAD DS    A                       ADDR OF 1ST INDEX EXTENT         43000020
DEBNPEE  DS    0BL1                    = PRIME DATA EXTENTS             44000020
DEBFPEAD DS    A                       ADDR OF 1ST PRIME DATA EXTENT    45000020
DEBNOEE  DS    0BL1                    = OVERFLOW EXTENTS               46000020
DEBFOEAD DS    A                       ADDR OF 1ST OVERFLOW EXTENT      47000020
DEBRPSID DS    0BL1                    RPS IDENTIFIERS FOR PRI,IX,OVFLO 48000020
*                                      B0 PRIME ON RPS                  49000020
*                                      B1 INDEX ON RPS                  50000020
*                                      B2 OVFLO ON RPS                  51000020
*                                      B3 SIO APPENDAGE LOADED          52000020
*                                      B4-7 RESERVED                    53000020
DEBEXPTR DS    A                        POINTER TO DEB EXTENTION        54000021
         ORG   &NAME+32                                                 55000020
* DIRECT ACCESS DEVICE DEPENDENT SECTION                                56000020
*        ADDRESS BY DEBAD + (M X (4 X EXSCL))                           57000020
DEBDVMOD DS    0BL1                    DEVICE MODIFIER (FILE MASK)      58000020
DEBUCBAD DS    A                       POINTER TO UCB                   59000020
DEBBINUM DS    BL2                     BB OF EXTENT                     60000020
DEBSTRCC DS    BL2                     CYLINDER ADDR FOR START OF EXT   61000020
DEBSTRHH DS    BL2                     HEAD NUMBER FOR START OF EXTENT  62000020
DEBENDCC DS    BL2                     CYLINDER ADDR FOR END OF EXTENT  63000020
DEBENDHH DS    BL2                     HEAD NUMBER FOR END OF EXTENT    64000020
DEBNMTRK DS    BL2                     NUMBER OF TRACKS IN EXTENT       65000020
*                                      ******************************** 66000020
         MEND                                                           67000020
