         MACRO                                                          05000020
&NAME    IGGDCBFA                                                       10000020
&NAME    DSECT                                                          15000020
*    03/20/73          LEVEL=01                                         15010002
*****************************************************************       15050002
*    ISAM DCB FIELD AREA - CONTROL BLOCK FOR SHARED DATA SETS   *       15100002
*****************************************************************       15150002
DFARORG3 DS    F                        NO. ACCESSES TO OVRFLOW RCDS    15200002
*                                       OTHER THAN FIRST RCD IN CHAIN   15210002
DFANREC  DS    F                        NO. RCDS IN PRIME AREA          15250002
DFAST    DS    BL1                      DCB STATUS INDICATORS           15300002
*                                       B0 SINGLE SCHEDULE MODE         15350002
*                                       B1 KEY SEQ. TO BE CHECKED       15400002
*                                       B2 INITIAL LOAD COMPLETED       15450002
*                                       B3 RESUME LOAD ON NEW CYL       15500002
*                                       B4 RESERVED                     15550002
*                                       B5 FIRST MACRO NOT RCVD         15600002
*                                       B6 LAST BLOCK FULL              15650002
*                                       B7 LAST TRACK FULL              15700002
DFARESER DS    XL1                      RESERVED                        15750002
DFAUSE   DS    H                        NO. DCBS OPENED ON DATA SET,    15800002
*                                       TOTAL OF ASID USE COUNTS        15850002
DFANBOV  DS    H                        VLR, NO. BYTES LEFT ON          15900002
*                                       CURRENT OVRFLOW TRACK           15950002
DFANOREC DS    H                        NO. RCDS IN OVERFLOW AREA       16000002
DFALIOV  DS    XL8                      ADDR LAST IND OVRFLOW RCD       16050002
DFARORG1 DS    H                        NO. FULL CYL OVRFLOW AREAS      16100002
DFARORG2 DS    H                        NO. OF TRKS REMAINING IN        16150002
*                                       IND. OVERFLOW AREAS             16200002
DFALPDA  DS    XL8                      LAST PRIME DATA RCD ADDR        16250002
DFAID    DS    XL8                      IDENTIFIER FOR DATA SET         16300002
DFACHAIN DS    A                        ADDR OF NEXT FA IN CHAIN        16350002
DFAASID1 DS    H                        ASID OF USER                    16400002
DFAUSE1  DS    H                        USE COUNT FOR AISD1             16450002
DFAASID2 DS    H                        ASID OF USER                    16500002
DFAUSE2  DS    H                        USE COUNT FOR AISD2             16550002
DFAASID3 DS    H                        ASID OF USER                    16600002
DFAUSE3  DS    H                        USE COUNT FOR ASID3             16650002
DFAASID4 DS    H                        ASID OF USER                    16700002
DFAUSE4  DS    H                        USE COUNT FOR AISD4             16750002
DFAASIDN DS    A                        ADDR OF NEXT FAEX IN CHAIN      16800002
DFASIZE  EQU   *-DFARORG3               SIZE OF FILED AREA              16850002
         SPACE 4                                                        16900002
DCBFAEX  DSECT                                                          16950002
*****************************************************************       17000002
*    DCB FIELD AREA EXTENSION - CONTAINS USE COUNTS FOR FOUR     *      17050002
*    ADDRESS SPACES AND A POINTER TO NEXT FIELD AREA EXTENSION    *     17100002
*******************************************************************     17150002
DFAXSID1 DS    H                        ASID OF USER                    17200002
DFAUSE1X DS    H                        USE COUNT FOR XSID1             17250002
DFAXSID2 DS    H                        ASID OF USER                    17300002
DFAUSE2X DS    H                        USE COUNT FOR XSID2             17350002
DFAXSID3 DS    H                        ASID OF USER                    17400002
DFAUSE3X DS    H                        USE COUNT FOR XSID3             17450002
DFAXSID4 DS    H                        ASID OF USER                    17500002
DFAUSE4X DS    H                        USE COUNT FOR XSID4             17550002
DFAEXN   DS    A                        ADDR OF NEXT FAEX ON CHAIN      17600002
DFEXSIZE EQU   *-DCBFAEX                SIZE OF EXTENSION               17650002
         SPACE 4                                                        17700002
DFAASID  DSECT                                                          17750002
DFANXPTR EQU   4                        OFFSET TO NEXT ASID FIELD       17760002
DFANOIDS EQU   4                        NO. OF ASID'S AND USE COUNTS    17770002
*                                       IN DCBFA AND EXTENSIONS         17780002
DFAINCR  EQU   1                        INCREMENT USE COUNTS            17790002
         SPACE                                                          17792002
*******************************************************************     17800002
*    DSECT FOR SEARCHING FOR ADDRESS SPACE ID                     *     17850002
*******************************************************************     17900002
         SPACE                                                          17910002
DFAASIDX DS    H                        ADDRESS SPACE ID                17950002
DFAUSEX  DS    H                        ASID USE COUNT                  18000002
DFAPTR   DS    A                        ADDR OF DCBFA EXTENSION         18050002
         MEND                                                           18300002
