         MACRO                                                          01000020
&NAME    IGGIOBD                                                        02000020
.*          RELEASE 22 DELETIONS/CHANGES                                02001020
.*          RELEASE 21 DELETIONS/CHANGES                                02002020
.*          RELEASE 20 DELETIONS/CHANGES                                02010020
*    02/06/73          LEVEL=01                                         02060002
&NAME    DSECT                                                          03000020
         DS    0F             STANDARD IOB                              04000020
IOBFLAG1 DS    CL1                                                      05000020
IOBFLAG2 DS    CL1                                                      06000020
IOBSENSE DS    0XL2                                                     07000002
IOBSENS0 DS    XL1                      SENSE BYTE 0                    07050002
IOBSENS1 DS    XL1                      SENSE BYTE 1                    07100002
IOBECBAD DS    A                                                        08000020
IOBCSW   DS    CL8                                                      09000020
IOBSIOCC DS    CL1                                                      10000020
IOBSTART DS    AL3                                                      11000020
IOBWGHT  DS    CL1                                                      12000020
IOBDCBAD  DS    AL3                                                     13000020
IOBRESTA DS    A                                                        14000020
IOBBCTIN DS    CL2                                                      15000020
IOBERRCT DS    CL2                                                      16000020
IOBDADAD DS    CL8                                                      17000020
*                             BISAM IOB EXTENSION                       18000020
IOBCCWAD DS    A                        ADDRESS FIRST CHAN PROGRAM      19000020
IOBINDCT DS    CL1                      INDICATORS B0 REMOVE CP FROM Q  20000020
*                                                  B1 UNSCHEDULED BIT   21000020
*                                                  B2 OVFLO RCD IN W    22000020
IOBUNSQR DS    CL1                      UNSCHED REASON B0 CP1 OR 2 BUSY 23000020
*                                                        B1 NO CP4-5-6  24000020
*                                                      B3 WKN IN EFFECT 25000020
IOBAPP   DS    CL1                      APPENDAGE CODE 0 READ CP4-5     26000020
*                                                      1 WRITE CP4-5    27000020
*                                                      2 CP7            28000020
*                                                      3 CP1 OR CP2     29000020
*                                                      5 CP6            30000020
*                                                      6 WRITE CHECK    31000020
*                                                 WKN  7 CP1 OR CP2     32000020
*                                                      8 CP8            33000020
*                                                      9 CP10A          34000020
*                                                     10 CP10B          35000020
*                                                     11 CP10B          36000020
*                                                     12 CP14           37000020
*                                                     13 CP14           38000020
*                                                     14 CP15           39000020
*                                                     15 CP16           40000020
*                                                     16 CP16           41000020
*                                                     17 CP17           42000020
*                                                     18 CP17           43000020
*                                                     19 CP17           44000020
*                                                     20 CP9/12/11/13A  45000020
*                                                     21 CP9/12/11/13B  46000020
*                                                     22 CP9C/CP/23W    47000020
*                                                     23 CP10A          48000020
*                                                     24 X/CP12C/X/13C  49000020
IOBASYN  DS    CL1                      ASYNCHRONOUS   0 END CP456 OK   50000020
*                                                      1 DO AN EXCP     51000020
*                                                      2 END CP7 OK     52000020
*                                                      3 END CP1-2 OK   53000020
*                                                      4 END CP456 ERR  54000020
*                                                      6 END CP7 ERR    55000020
*                                                      7 END CP1-2 ERR  56000020
*                                                 WKN  8 COMPLETION     57000020
*                                                      9 CP14, SETUP 1  58000020
*                                                     10 CP14, SETUP 2  59000020
*                                                     11 CP14, SETUP 3  60000020
*                                                     12 CP14, SETUP 4  61000020
*                                                     13 CP14, SETUP 5  62000020
*                                                     14 CP14, SETUP 6  63000020
IOBCOUNT DS    0CL1                     WRITE CHECK ERROR COUNTER       64000020
IOBFCHAD DS    A                        FORWARD CHAIN ADDRESS           65000020
IOBBCHAD DS    A                        BACKWARD CHAIN ADDRESS          66000020
IOBCCW1  DS    D                        SETSECTOR FOR RPS               67000020
IOBCCW2  DS    D                        TIC TO CHANNEL PGM              68000020
IOBSECT  EQU   IOBCCW2+4                TEMP STORAGE FOR SECTOR VALUES  69000020
         ORG   IOBCCWAD                                                 70000020
*                             QISAM IOB EXTENSION                       71000020
         DS    C              W1EXTEN   APPENDAGE CODE                  72000020
         DS    C              W1OEXTEN  APPENDAGE CODE                  73000020
         MEND                                                           74000020
