         MACRO                                                          01000020
&NAME    IGGLOAD                                                        02000020
*    12/19/72          LEVEL=02                                         02002002
.*         RELEASE 22 DELETIONS/CHANGES                                 02010020
.*         RELEASE 21 DELETIONS/CHANGES                                 02020020
.*         RELEASE 20 DELETIONS/CHANGES                                 02030020
*********************************************************************** 03000020
* ISLCOMON REFERENCE  C(DCBWKPT1)=A(ISLCOMON)                         * 04000020
*********************************************************************** 05000020
*                                                                       06000020
&NAME    DSECT                                                          07000020
         DS    0D                                                       08000020
ISLECBA  DS    A                        FOR CP18 AND CP20               09000020
ISLIOBA  DS    CL40                                                     10000020
ISLECBB  DS    A                        FOR CP21                        11000020
ISLIOBB  DS    CL40                                                     12000020
ISLECBC  DS    A                        FOR CP19                        13000020
ISLIOBC  DS    CL40                                                     14000020
ISLAREAZ DS    CL88                     FOR CP19                        15000020
ISLIXLT  DS    CL104                    INDEX LOCATION TABLE            16000020
ISLNIRT  DS    CL3                      HHR OF DUMMY TRACK INDEX        17000020
ISLHIRT  DS    CL1                      NO INDX ENT ON PRIM DATA TRACK  18000020
ISLCBF   DS    F                        BUF CTRL PTR (RCD WITHIN BUF)   19000020
ISLBMPR  DS    F                        USED TO BUMP CBF TO NEXT RCD    20000020
ISLFBW   DS    F                        NO OF BUFS SCHED TO WRITE       21000020
ISLEOB   DS    F                        END OF BUFFR ADR                22000020
ISLNCNT  DS    CL8                      NORMAL IX COUNT, CCHHRKDD       23000020
ISLOCNT  DS    CL8                      OVFLOW IX COUNT, CCHHRKDD       24000020
ISLDCNT  DS    CL8                      DUMMY IX COUNT, CCHHRKDD        25000020
ISLNDAT  DS    CL10                     NORMAL IX DATA, MBBCCHHRFP      26000020
         DS    CL2                                                      27000020
ISLODAT  DS    CL10                     OVFLOW IX DATA, MBBCCHHRFP      28000020
         DS    CL1                                                      29000020
ISLBUFNO DS    CL1                      DCBBUFNO OR 2                   30000020
ISLBUFN  DS    F                        ADDR OF SLOT N IN BCT           31000020
ISLMVC   DS    F                        COUNT OF EXECUTED MOVE (N-1)    32000020
ISLMVCT  DS    F                        NOMBR OF 255 BYTE MOVES (N+1)   33000020
ISLVRSAV DS    18F                      ISL SAVE AREA                   34000020
ISLAPSAV DS    10F                      APPENDAGE SAVE AREA             35000020
ISLWRSAV DS    16F                      ISL SAVE AREA FOR CLOSE         36000020
*                                                                       37000020
TSTWK1C  DS    F                        RESERVED AREA                   38000020
TSTWK2C  DS    F                        RESERVED AREA                   39000020
TSTWK3C  DS    F                                                        40000020
ISLNOENT DS    F                        NO ENTRIES REMAINING ON TRACK   41000020
ISLOFFST DS    F                        SIZE OF WR CKD INSTR IN BYTES   42000020
ISLD     DS    F                        DISPLACEMENT FROM CP18 START    43000020
ISLFSTBF DS    F                        ADDR OF 1ST SCHED BUF (REL)     44000020
ISLLSTBF DS    F                        ADDR OF LAST SCHED BUF (REL)    45000020
ISLCCFAD DS    F                        ADDR OF CC FLAG IN CP18         46000020
ISLKEYAD DS    F                        ADDR OF KEY OF LAST RCD ON TRK  47000020
*                                                                       48000020
CL1AD    DS    0F                       ADDR OF CP18 SKELETON (OPEN)    49000002
ISLF8AD  DS    F                        ADDR OF PUT ISLF800 (CLOSE)     49050002
CM1AD    DS    0F                       ADDR OF CP19 SKELETON (OPEN)    49100002
ISLFXAD  DS    F                        ADDR OF PJT ISLFY01 (CLOSE)     50000002
CQ1AD    DS    0F                       ADDR OF CP20 SKELETON (OPEN)    50050002
ISLFYAD  DS    F                        ADDR OF PUT ADDR OF PUT ISLFZ01 51000020
CQT1AD   DS    0F                       ADDR CP20 WC SKELETON (OPEN)    51050002
ISLFZAD  DS    F                        ADDR OF PUT ISLPA01 (CLOSE)     52000002
CQ40AD   DS    0F                       ADDR OF CP21 SKELETON (OPEN)    52050002
ISLPAAD  DS    F                        ADDR OF APP ISLPA01 (CLOSE)     53000002
CQ45AD   DS    0F                       ADDR CP21 WC SKELETON (OPEN)    53050002
ISLF1AD  DS    F                        ADDR OF APP ISLF110 (CLOSE)     54000002
* ISLVPTRS REFERENCE  C(DCBWKPT6)=A(ISLVPTRS)                           55000020
*                                                                       56000020
ISLVPTRS EQU   *                                                        57000020
ISLVPTR1 DS    A                        A(AREA Y)                       58000020
ISLVPTR2 DS    A                        A(KEYSAVE)                      59000020
ISLVPTR3 DS    A                        A(IOBBCT) BUF CTRL TBL ADR      60000020
ISLVPTR4 DS    A                        A(CP18)                         61000020
ISLVPTR5 DS    A                        A(CP19)                         62000020
ISLVPTR6 DS    A                        A(CP20)                         63000020
ISLVPTR7 DS    A                        A(CP21)                         64000020
ISLVPTR8 DS    A                        SIZE OF ISLCOMON AREA           65000020
ISLVPTR9 DS    A                        SIZE OF CHAN PROG AREA          66000020
ISLVPTRA DS    A                        A(TRACK INDEX SAVE AREA)        67000020
*                                       BIT 0--FULL TRK INDX WRITE      68000020
*                                       BIT 1--SUCCESSFUL GETMAIN       69000020
ISLVPTRB DS    A                        A(CP20B)--FULL TRK INDX WR      70000020
ISLVPTRC DS    A                        A(CP20C)--FULL TRK INDX WR      71000020
ISLFXWK1 DS    F                        WORK AREA                       72000020
ISLFXWK2 DS    F                        WORK AREA                       73000020
ISLF9WK1 DS    F                        WORK AREA                       74000020
*                                                                       75000020
ISLIGAP  DS    H                        NON LAST RCD OVHD               76000020
ISLLGAP  DS    H                        LAST RCD OVHD                   77000020
ISLRPSSS DS    F                        SECTORS FOR CP18,19,20,21       78000020
ISLCSIZE EQU   *-&NAME                  SIZE OF COMMON WORK AREA        79000020
         MEND                                                           81000020
