         MACRO                                                          00700020
&NAME    IGGSCAN  &OPTCD=                                               01400020
         GBLC  &LIB                                                     01402021
         GBLB  &CPOPS                                                   01410020
.*         RELEASE OS/VS2-02 DELETIONS/CHANGES                          01410102
*    01/10/73          LEVEL=01                                         01412102
         AIF   (&CPOPS).NOCPOPS                                         01420020
&CPOPS   SETB  1                                                        01430020
         IGGCPOPS                                                       01440020
.NOCPOPS ANOP                                                           01450020
&NAME    DSECT                          SCAN MODE WORK AREA             02100020
W1ECBI   DS    F                        ECBI-INPUT CONTROL BLOCK        02800020
W1IOBI   DS    0BL44                    LAYOUT OF IOBI                  03500020
W1IF1    DS    BL1                      FLAGS1 BYTE                     04200020
W1IF2    DS    BL1                      FLAGS2 BYTE                     04900020
W1ISENSE DS    BL2                      SENSE INFO. FROM IOS            05600020
W1IECBAD DS    A                        ECB POINTER                     06300020
W1ICSW   DS    0BL8                     CSW FROM IOS                    07000020
W1KEY    DS    0BL1                                                     07700020
W1COMAD  DS    A                        ADDR LAST CCW EXECUTED + 8      08400020
W1STATUS DS    BL2                      STATUS                          09100020
W1COUNT  DS    BL2                      RESIDUAL COUNT                  09800020
W1ISIOCC DS    0BL1                     SIO CONDITION CODE              10500020
W1ICPS   DS    A                        ADDRESS 1ST CP TO BE EXECUTED   11200020
W1IWGHT  DS    0BL1                     WEIGHT                          11900020
W1IDCBAD DS    A                        DCB POINTER                     12600020
W1ICPRES DS    A                        CP RESTART ADDRESS              13300020
W1IBLKCT DS    BL2                      BLK COUNT                       14000020
W1IERRCT DS    BL2                      ERROR COUNT (RETRIES)           14700020
W1IDAD   DS    0BL8                     IOBI DIR.ACCESS DEVICE ADDRESS. 15400020
W1IMBBCC DS    BL5                      MBBCC                           16100020
W1IHHR   DS    BL3                      HHR                             16800020
W1IEXTEN DS    BL2                      INPUT APPENDAGE CODE            17500020
W1CPNUM  DS    BL2                      USED AS SAVE AREA BY SCHED RTN  18200020
         DS    0F                       TO RELOC ON FULL WORD           18900020
W1ECBO   DS    F                        ECBO-OUTPUT EVENT CONTROL BLOCK 19600020
W1IOBO   DS    0BL44                    LAYOUT OF IOBO                  20300020
W1OF1    DS    BL1                      FLAGS 1 BYTE                    21000020
W1OF2    DS    BL1                      FLAGS 2 BYTE                    21700020
W1OSENSE DS    BL2                      SENSE INFO. FROM IOS            22400020
W1OECBAD DS    A                        ECB POINTER                     23100020
W1OCSW   DS    0BL8                     CSW FROM IOS                    23800020
W1KEYO   DS    0BL1                                                     24500020
W1COMADO DS    A                        ADDR LAST CCW EXECUTED&8        25200020
W1STATO  DS    BL2                      STATUS BYTES                    25900020
W1COUNTO DS    BL2                      RESIDUAL COUNT                  26600020
W1OSIOCC DS    0BL1                     SIO CONDITION CODE              27300020
W1OCPS   DS    A                        ADDRESS 1ST CCW TO BE EXECUTED  28000020
W1OWGHT  DS    0BL1                     WEIGHT                          28700020
W1ODCBAD DS    A                        DCB POINTER                     29400020
W1OCPRES DS    A                        CP RESTART ADDRESS              30100020
W1OBLKCT DS    BL2                      BLK CNT                         30800020
W1OERRCT DS    BL2                      ERROR COUNT (RETRIES)           31500020
W1ODAD   DS    0BL8                     IOBO DIR. ACCESS DEVICE ADDRESS 32200020
W1OMBBCC DS    BL5                      MBBCC                           32900020
W1OHHR   DS    BL3                      HHR                             33600020
W1OEXTEN DS    BL2                      OUTPUT APPENDAGE CODE           34300020
W1SAV7   DS    BL2                      USED AS SAVE AREA BY SCHED RTN  35000020
W1OSBIT1 DS    BL1                      OVERALL STATUS BYTE 1           35700020
W1OSBIT2 DS    BL1                      OVERALL STATUS BYTE 2           36400020
W1OSBIT3 DS    BL1                      OVERALL STATUS BYTE 3           37100020
W1ICNOT  DS    BL1                      BUFNO/2(USED TO SCHEDULE IP-OP) 37800020
W1KEYBLK DS    BL4                      USED BY SETL < FOR ADDR WITHIN  38500020
*                                       BLOCK OF THE REQUESTED RECORD   39200020
W1LPDR   DS    0BL8                     LAST PRIME DATA RCD READ.       39900020
W1LMBBCC DS    BL5                      LPDR MBBCC                      40600020
W1LHH    DS    BL2                      LPDR HH                         41300020
W1LR     DS    BL1                      LPDR R                          42000020
W1CBF    DS    A                        CURRENT BUFFER ADDRESS          42700020
W1EOB    DS    A                        END OF BUFFER ADDRESS           43400020
W1COUNTR DS    BL2                      CTR OF RETRIES IN WRITE CHECK   44100020
PRIMEIND DS    BL1                      SWITCH FOR TESTING SAME DEVICE  44800020
FIXIND   DS    BL1                      TEMPORARY STORAGE               45500020
W1FCPS   DS    A                        1ST CP SCHEDULED (WRITE)        46200020
W1QTABLE DS    0BL60                    QTABLE                          46900020
W1FR1ST  DS    A                        POINTER TO 1ST CP ON FREE Q     47600020
W1FRLAST DS    A                        POINTER TO LAST CP ON FREE Q    48300020
         DS    BL2                      (MUST BE ZERO)                  49000020
W1FREEC  DS    BL2                      NO. BUFFERS ON FREE Q           49700020
W1RD1ST  DS    A                        POINTER TO 1ST CP ON READ Q     50400020
W1RDLAST DS    A                        POINTER TO LAST CP ON READ Q    51100020
W1READR  DS    BL2                      RESIDUE BUFS ON READ Q -UNUSED  51800020
W1READC  DS    BL2                      NO. OF BUFS ON READ Q           52500020
W1US1ST  DS    A                        POINTER OT 1ST CP ON USER Q     53200020
W1USLAST DS    A                        POINTER TO LAST CP ON USER Q    53900020
         DS    BL2                      (MUST BE ZERO)                  54600020
W1USERC  DS    BL2                      NO. OF BUFS ON USER Q           55300020
W1PX1ST  DS    A                        POINTER TO 1ST CP ON PUTX Q     56000020
W1PXLAST DS    A                        POINTER TO LAST CP ON PUTX Q    56700020
         DS    BL2                      (MUST BE ZERO)                  57400020
W1PUTXC  DS    BL2                      NO. OF BUFFERS ON PUTX QUEUE    58100020
W1WR1ST  DS    A                        POINTER TO 1ST CP ON WRITE Q    58800020
W1WRLAST DS    A                        POINTER TO LAST CP ON WRITE Q   59500020
         DS    BL2                      (MUST BE ZERO)                  60200020
W1WRITEC DS    BL2                      NO. OF BUFFERS ON WRITE QUEUE   60900020
W1WAREA  DS    0BL36                    AREA FOR TRACK INDEX ENTRIES    61600020
W1WCOUNT DS    BL8                      COUNT OF CURRENT INDEX ENTRY    62300020
W1WCNXDM DS    BL8                      COUNT OF NEXT NORMAL OR DUMMY   63000020
W1WOVFL  DS    BL10                     DATA OF CURRENT OVERFLOW ENTRY  63700020
W1WDNXDM DS    BL10                     DATA OF NEXT NORMAL OR DUMMY    64400020
W1WPLEN  DS    BL2                      BYTE LENGTH OF WORKAREA         65100020
W1CURLEN DS    BL2                      LENGTH OF CURRENT LOGICAL REC   65800020
W1TEMPSA DS    BL4                      TEMPORARY STORAGE               66500020
W1REGSV2 DS    BL4                      AREA TO SAVE CONTENTS OF A REG  67200020
W1REGSAV DS    BL4                      AREA TO SAVE CONTENTS OF A REG  67900020
W1REGSV3 DS    BL4                      TEMPORARY STORAGE               68600020
W1CP23PT DS    A                        ADDRESS OF CP 23                79100020
W1CP26PT DS    A                        ADDRESS OF CP 26                79800020
W1CP25PT DS    A                        ADDRESS OF CP 25                80500020
         DS    0D                                                       81200020
W1CP24   DS    0BL72                    CHAN PROG 24 READ TRACK INDEXES 81900020
         IGGCP24                                                        82600020
         DS    0D                       ROUND TO DOUBLE WORD BDY        88210020
W1WDCXDM DS    CL10                     VLR DATA FOR CURR NORMAL IX     89600020
W1ISECT  DS    1C                       CURRENT INPUT SECTOR VALUE      90300020
W1OSECT  DS    1C                       CURRENT OUTPUT SECTOR VALUE     90310020
W1DCBFA  DS    1F                       DCB FIELD AREA PTR              90320020
         DS    0D                       ROUND TO NEXT DBL WD.           91700020
W1VLRLN  EQU   *-&NAME                  LENGTH OF BASIC SECTION.        92400020
*                                                                       92450020
W1ICPEXT CCW   SETSECT,0,CC,1           RPS CP EXT. FOR INPUT           93100020
W1ICPTIC CCW   TIC,0,0,0                SET SECTOR AND TIC              93150002
*                                                                       93200020
W1OCPEXT CCW   SETSECT,0,CC,1           RPS CP EXT. FOR OUTPUT          93800020
W1OCPTIC CCW   TIC,0,0,0                SET SECTOR AND TIC              93810002
*                                                                       93820020
W1RDCNT  CCW   RDCNT,0,CC+SKIP,0        POSITION TO NEXT RECORD         93850020
W1RDSECT CCW   RDSECT,0,0,0             GET SECTOR FOR NEXT GET         93900020
*                                                                       93910020
W1CN5SAV DS    A                        SAVE AREA TO RESTORE TIC        93950020
W1RPSSA  DS    4F                       WORK AREA (SIO APPENDAGES)      94000020
W1TOTAL  DS    H                        RUNNING TRACK BALANCE           94050020
W1RECLEN DS    H                        MINIMUM LENGTH PRIME RECORDS    94100020
W1OVLEN  DS    H                        MINIMUM LENGTH OVERFLOW RECORDS 94150020
W1FSTSH  DS    H                        RUNNING BALANCE TO FIRST SHARED 94200020
*   LIMITS FOR OVERFLOW SECTOR GUESSES VARIABLE                         94250020
W1RPSC1  DS    FL1                      LOWER LIMIT CYLINDER OVERFLOW   94300020
W1RPSC2  DS    FL1                      UPPER LIMIT CYLINDER OVERFLOW   94350020
W1RPSI1  DS    FL1                      LOWER LIMIT IND OVERFLOW        94400020
W1RPSI2  DS    FL1                      UPPER LIMIT IND OVERFLOW        94450020
*                                                                       94460020
W1RPSLN  EQU   *-&NAME                  LENGTH INCLUDING RPS FIELDS.    94500020
         MEND                                                           95200020
