         MACRO                                                          03000020
&NAME    IGGWKNCP &OPTCD=                                               06000020
         GBLB   &CPOPS                                                  09000020
.*          RELEASE 23 DELETIONS/CHANGES                                09001020
.*          RELEASE 22 DELETIONS/CHANGES                                09002020
.*          RELEASE 21 DELETIONS/CHANGES                                09003020
         AIF    (&CPOPS).NOCPOPS                                        09010020
&CPOPS   SETB   1                                                       09020020
         IGGCPOPS                                                       09030020
.NOCPOPS ANOP                                                           09040020
&NAME    DSECT                                                          09050020
CP1      DS     0D                                                      09060020
         IGGCP1                                                         09070020
         ORG    &NAME                                                   09080020
CP2      DS     0D                                                      09090020
         IGGCP2                                                         09100020
         ORG  &NAME                                                     09110020
CP8      DS    0D                                                       12000020
         IGGCP8 OPTCD=&OPTCD                                            15000020
         AIF   ('&OPTCD' EQ 'V' OR '&OPTCD' EQ 'VW').SKIP10B            18000020
CP10B    DS    0D                                                       21000020
         IGGCP10B OPTCD=&OPTCD                                          24000020
.SKIP10B ANOP                                                           27000020
CP14     DS    0D                                                       30000020
         IGGCP14 OPTCD=&OPTCD                                           33000020
CP15     DS    0D                                                       36000020
         IGGCP15                                                        39000020
CP16     DS    0D                                                       42000020
         IGGCP16  OPTCD=&OPTCD                                          45000020
CP17     DS    0D                                                       48000020
         IGGCP17 OPTCD=&OPTCD                                           51000020
         AIF   ('&OPTCD' EQ 'V' OR '&OPTCD' EQ 'VW').SKIP10A            54000020
CP10A    DS    0D                                                       57000020
         IGGCP10A OPTCD=&OPTCD                                          60000020
.SKIP10A ANOP                                                           63000020
         MEND                                                           78000020
