         TITLE 'MACRO GSAVTADR USED BY SUBROUTINES IN IEDCSA'           00300000
*********************************************************************** 00600000
*        THE PARAMETERS TO THIS MACRO ARE AS FOLLOWS                  * 00900000
*        R=    THE REGISTER TO RECEIVE THE ADDRESS                    * 01200000
*        I=    SAVT OR AVT DEPENDING ON THE DESIRED ADDRESS           * 01500000
*THIS MACRO PUTS THE ADDRESS OF EITHER THE SAVT OR AVT IN THE         * 01800000
*SPECIFIED REGISTER AND PERFORMS A USING ON THAT REGISTER             * 02100000
*********************************************************************** 02400000
         SPACE 2                                                        02700000
         MACRO                                                          03000000
&NAME    GSAVTADR  &R=R1,&I=SAVT                                        03300000
&NAME    L     &R,CVTADDR               GET CVT ADDRESS                 03600000
         L     &R,AVTCVTPT(&R)          GET AVT POINTER                 03800000
         L     &R,TCXAVT-IEDQTCX(&R)    GET TCAM AVT ADDRESS            04000000
         USING IEDQAVTD,&R              AVT ADDRESSABILITY              04200000
         AIF   ('&I' EQ 'AVT').NS                                       04500000
         L     &R,AVTSAVTP              GET SAVT ADDRESS                04800000
         DROP  &R                                                       05100000
         USING IEDNSVTD,&R              SAVT ADDRESSABILITY             05400000
.NS      ANOP                                                           05700000
         MEND                                                           06000000
         TITLE 'BASE MACRO USED BY COMMON SUBROUTINES OF IEDCSA'        06300000
*********************************************************************** 06600000
* THIS MACRO PERFORMS THE FOLLOWING FUNCTIONS                         * 06900000
*     : ESTABLISHES  *  ADDRESSABILITY WITHIN THE INVOKING CSECT      * 07200000
*       USING REGISTER SPECIFIED BY R=  DEFAULT IS R=R1               * 07500000
*     : OPTIONALLY GENERATES (INSTRUCTION OPERAND) AFTER THE USING    * 07800000
*       STATEMENT.  INTENDED FOR GENERATING BRANCHES                  * 08100000
*     : OPTIONALLY GENERATES CODE TO COMPUTE OFFSETS OF THE FORM      * 08400000
*       BCTR  REG,0                                                   * 08700000
*       MH    REG,ITEM                                                * 09000000
*********************************************************************** 09300000
         SPACE                                                          09600000
         MACRO                                                          09900000
&NAME    BASE  &R=R1,&IN,&OPRND,&OFFS,&ITEM,&REG                        10200000
&NAME    BALR  &R,0                     SET LOCATION COUNTER            10500000
         USING *,&R                     TELL ASSEMBLER                  10800000
         AIF   ('&IN' EQ '').NOIN                                       11100000
         &IN   &OPRND                                                   11400000
.NOIN    ANOP                                                           11700000
         AIF   ('&OFFS' EQ '').NOOFF                                    12000000
         BCTR  &REG,0                   REDUCE FOR OFFSET CALC          12300000
         MH    &REG,&ITEM               COMPUTE OFFSET                  12600000
.NOOFF   ANOP                                                           12900000
         MEND                                                           13200000
         TITLE 'BADRET MACRO USED BY COMMON SUBR OF IEDCSA'             13500000
*********************************************************************** 13800000
* THIS MACRO ISINTENDED FOR GENERATION OF BAD RETURN CODES FOR COMMON * 14100000
*SUBROUTINES OF IEDCSA                                                * 14400000
* : CLEARS RETURN CODE REG SPECIFIED BY R=  DEFAULT IS R=R15          * 14700000
* : GENERATES BR REG SPECIFIED BY RET=  DEFAUL IS RET=R14             * 15000000
*********************************************************************** 15300000
         SPACE                                                          15600000
         MACRO                                                          15900000
&NAME    BADRET &R=R15,&RET=R14                                         16200000
&NAME    SR    &R,&R                    CLEAR RETURN CODE REG           16500000
         BR    &RET                     RETURN TO CALLER                16800000
         MEND                                                           17100000
         TITLE 'PROLOGUE'                                               17400000
IEDCSA   CSECT                                                          17700000
         SPACE 3                                                        18000000
*  CHANGE ACTIVITY AS FOLLOWS                                           18300000
******************** MICROFICHE FLAGS *********************** SUPT CODE 18600000
*A-000000-999999                                               @Y17XADZ 18900000
*-A696000                                                      @OX21215 18950082
*********************************************************************** 19200000
* MODULE NAME : IEDCSA                                                * 19500000
*                                                                     * 19800000
* DESCRIPTION NAME : TCAM COMMON SUBROUTINES                          * 20100000
*                                                                     * 20400000
* COPYRIGHT : 'NONE'                                                  * 20700000
*                                                                     * 21000000
* STATUS:  CHANGE LEVEL 10                                            * 21300000
*                                                                     * 21600000
* FUNCTION:   THIS MODULE CONTAINS THE COMMON SUBROUTINES FOR         * 21900000
*            THE FOLLOWING  CONVERSIONS                               * 22200000
*            IEDIAP03--CONVERTS A NETWORK ADDRESS TO A TTCIN          * 22500000
*            IEDIAP04--CONVERTS A TTCIN TO NETWORK ADDRESS            * 22800000
*            IEDIAP05--CONVERTS A TTCIN TO EITHER TTE ADDRESS         * 23100000
*                                           OR  MH TABLE ENTRY        * 23400000
*            IEDIAP06--CONVERTS SUBAREA ADDR TO NCP LCB ADDR          * 23700000
* ENTRY POINTS:IEDIAP03                                               * 24000000
*              IEDIAP04                                               * 24300000
*              IEDIAP05                                               * 24600000
*              IEDIAP06                                               * 24900000
* INPUTS:IEDIAP03--R1 =NETWORK ADDRESS RIGHT ADJUSTED                 * 25200000
*                 R15=ENTRY POINT ADDRESS                             * 25500000
*                 R14=RETURN ADDRESS                                    25800000
*       IEDIAP04--R1 =INDEX RIGHT ADJUSTED                            * 26100000
*                 R15=ENTRY POINT ADDRESS                               26400000
*                 R14=RETURN ADDRESS                                  * 26700000
*       IEDIAP05--R1 =INDEX RIGHT ADJUSTED                            * 27000000
*                 R15=ENTRY POINT ADDRESS                             * 27300000
*                 R14=RETURN ADDRESS                                  * 27600000
*       IEDIAP06--R1 =NETWORK ADDRESS RIGHT ADJUSTED                  * 27900000
*                 R15=ENTRY POINT ADDRESS                             * 28200000
*                 R14=RETURN ADDRESS                                  * 28500000
* OUTPUT:IEDIAP03-R0 =DESTROYED                                       * 28800000
*                 R1 =ADDRESS OF RVT ENTRY                            * 29000000
*                 R15= 0  BAD RETURN CODE CONVERSION NOT PERFORMED    * 29200000
*                     ^0  DESIRED TTCIN                               * 29400000
*        IEDIAP04-R0 =DESTROYED                                       * 29600000
*                 R1 =ADDRESS OF NAT ENTRY                            * 29800000
*                 R15=DESIRED NETWORK ADDRESS                         * 30000000
*        IEDIAP05-R0 =DESTROYED                                       * 30600000
*                 R1 =TTE ADDRESS IF SIGN POSITIVE                    * 30900000
*                    =MH TABLE ENTRY ADDRESS IF SIGN IS NEGATIVE      * 31200000
*                 R15=DESTROYED                                       * 31500000
*                 R14=SAME AS ON ENTRY                                * 31800000
*        IEDIAP06-R0 =DESTROYED                                       * 31860000
*                 R1 =ADDRESS OF SAT ENTRY                            * 31920000
*                 R15= 0  BAD RETURN CODE CONVERSION NOT PERFORMED    * 31980000
*                     ^0  TTE ADDRESS OR MHTABLE TABLE ENTRY ADDRESS  * 32040000
*                                                                     * 32100000
* EXTERNAL ROUTINES: TTE CONVERT ROUTINE POINTED TO BY AVTRNMPT       * 32400000
*                                                                     * 32700000
* EXITS NORMAL: VIA BR 14                                             * 33000000
*              BY BRANCH TO ROUTINE AT AVTRNMPT                       * 33300000
*                                                                     * 33600000
* EXITS ERROR:  N/A                                                   * 33900000
*                                                                     * 34200000
* TABLES/WORKAREAS:  N/A                                              * 34500000
*                                                                     * 34800000
* ATTRIBUTES: REENTRANT                                               * 35100000
*                                                                     * 35400000
* CHARACTER CODE DEPENDENCY - RHE OPERATION OF THIS MODULE DOES NOT   * 35700000
*   DEPEND UPON A PARTICULAR INTERNAL REPRESENTATION OF THE EXTERNAL  * 36000000
*   CHARACTER SET.                                                    * 36300000
*                                                                     * 36600000
* NOTES - NONE                                                        * 36900000
*                                                                     * 37200000
*********************************************************************** 37500000
         TITLE 'EQUATES COMMON TO ALL SUBROUTINES OF IEDCSA'            37800000
*********************************************************************** 38100000
*       REGISTER USAGE                                                * 38400000
*********************************************************************** 38700000
         SPACE                                                          39000000
R1       EQU   1                        INPUT REGISTER                  39300000
R0       EQU   0                        WORK REGISTER                   39600000
R14      EQU   14                       RETURN REGISTER                 39900000
R15      EQU   15                       WORK/BASE REGISTER              40200000
         SPACE                                                          40500000
*********************************************************************** 40800000
*        EQUATES                                                      * 41100000
*********************************************************************** 41400000
         SPACE                                                          41700000
CVTADDR  EQU   16                       ADDRESS OF CVT AT THIS LOC      42000000
BYTE     EQU   8                        NO OF BITS IN A BYTE            42300000
TWOB     EQU   16                       NO OF BITS IN TWO BYTES         42600000
THREEB   EQU   24                       NO OF BITS IN THREE BYTES       42900000
BYTE3    EQU   1                        PICK UP LO ORDER BYTE           43200000
ALLBYTES EQU   15                       PICK UP ALL BYTES               43500000
BYTE2    EQU   2                        PICK UP BYTE 2                  43800000
INIT     EQU   0                        INITIALIZED INDICATOR           43900000
         SPACE 2                                                        44100000
   USING *,R15                                                          44400000
IEDCSA IEDHJN CPAST                                                     44700000
         TITLE 'IEDIAP03--NETWORK ADDRESS TO TTCIN CONVERSION '         45000000
IEDIAP03 CSECT                                                          45300000
         USING *,R15                                                    45400000
         N     R1,IAP03CHI              ELIMINATE HI ORDER              45500000
         LR    R0,R1                    SAVE INPUT REG                  45600000
         CLI   IAP03L,INIT              IS THIS FIRST ENTRY             45700000
         BNE   IAP03SET                 NO                              45800000
         SPACE                                                          45900000
*********************************************************************** 46200000
*        PERFORM INITIALIZATION ON FIRST ENTRY TO THIS CSECT          * 46500000
*                IAPO3L        = TO SAVTSUBL                          * 46560000
*                IAP03A        = TO SAVTSUBA                          * 46620000
*                IAP03SAT      = TO SAVTSAT                           * 46680000
*                IAPO3EA       = TO 16 MINUS SUBAREA LENGTH IN BITS   * 46740000
*********************************************************************** 46800000
         SPACE                                                          47100000
         GSAVTADR                                                       47400000
         MVC   IAP03L(1),SAVTSUBL       INIT SUBAREA LENGTH             47700000
         MVC   IAP03A(1),SAVTSUBA       INIT MAX SUBAREA VALUE          47800000
         MVC   IAP03SAT,SAVTSAT         INIT ADDR OF SAT TABLE          47900000
         LA    R1,TWOB                  NO OF BITS IN TWO BYTES         48000000
         S     R1,IAP03LA               SUBTRACT NO OF BITS IN SUBAREA  48100000
         ST    R1,IAP03EA               SAVE FOR SUBSEQUENT USE         48200000
         LR    R1,R0                    RESET INPUT REG                 48300000
*********************************************************************** 49200000
*        END OF FIRST ENTRY INITIALIZATION CODE                       * 49500000
*********************************************************************** 49800000
         SPACE                                                          50100000
IAP03SET EQU   *                                                        50200000
*********************************************************************** 51000000
*       ISOLATE SUBAREA ADDRESS                                       * 51300000
*********************************************************************** 51600000
         SPACE                                                          51900000
         L     R15,IAP03EA              GET LENGTH TO SHIFT             52200000
         SRL   R1,0(R15)                ELIMINATE ALL BUT SUBAREA       52500000
         BASE  R=R15                    REESTABLISH ADDRESSABILITY      52800000
         SPACE                                                          53100000
*********************************************************************** 53400000
*        VALIDATE SUBAREA ADDRESS                                     * 53700000
*********************************************************************** 54000000
         SPACE                                                          54300000
         C     R1,IAP03AA               COMPARE TO MAXSUBA VALUE        54600000
         BH    BAD                      BRANCH IF HIGHER THAN MAX       54900000
         SPACE                                                          55200000
**********************************************************************  55500000
*        DEVELOP SAT ENTRY FOR THIS SUBAREA                          *  55800000
**********************************************************************  56100000
         SPACE                                                          56400000
         BCTR  R1,0                     REDUCE FOR OFFSET CALCULATION   56700000
         MH    R1,SATLNG                DEVELOP OFFSET                  57000000
         A     R1,IAP03SAT              DEVELOP SAT ENTRY ADDRESS       57300000
         SPACE                                                          57600000
*********************************************************************** 58200000
*        DEVELOP RVT ADDRESS FOR THIS SUBAREA                         * 58500000
*********************************************************************** 58800000
         SPACE                                                          59100000
         L     R1,SATRNRVT-IEDSATD(R1)  GET RVT ADDRESS FROM SAT        59400000
         LTR   R1,R1                    DOES RVT EXIST                  59700000
         BZ    BAD                      BRANCH ERROR IF NOT             60000000
         SPACE                                                          60300000
*********************************************************************** 60600000
*        DEVELOP ELEMENT ADDRESS                                      * 60900000
*********************************************************************** 61200000
         SPACE                                                          61500000
         L     R15,IAP03LA              GET SUBAREA LENGHT IN BITS      62100000
         SLL   R0,TWOB(R15)             ELIMINATE NETWORK ADDRESS       62300000
         SRL   R0,TWOB(R15)             MOVE ELEMENT ADDR TO LO ORDER   62500000
         BASE  R=R15                    REESTABLISH ADDRESSABILITY      62700000
         SPACE                                                          63000000
**********************************************************************  63300000
*        DEVELOP RVT OFFSET FOR THIS ELEMENT ADDRESS                 *  63600000
**********************************************************************  63900000
         CLM   R0,BYTE2+BYTE3,RVTNUM-IEDRVTD(R1) CHECK ADDRESS @YM06515 64000000
         BH    BAD                      BRANCH IF IT'S TOO BIG @YM06515 64100000
         MH    R0,RVTLNG                COMPUTE RVT OFFSET              64200000
         SPACE                                                          64500000
*********************************************************************** 64800000
*        DEVELOP RVT ENTRY ADDRESS                                    * 65100000
*********************************************************************** 65400000
         SPACE                                                          65700000
         AR    R1,R0                    CALCULATE RVT ENTRY ADDRESS     66300000
         SPACE                                                          66500000
*********************************************************************** 66700000
*        DEVELOP TTCIN FOR THE SPECIFIED NETWORK ADDRESS              * 66900000
*********************************************************************** 67100000
         XR    R15,R15                  CLEAR OUTPUT REG                67300000
         ICM   R15,BYTE3+BYTE2,RVTINDEX-IEDRVTD(R1) GET INDEX  @YM07638 67500000
         LA    R1,RVTINDEX-IEDRVTD(R1)  POINT TO RVT ENTRY     @YM07638 67600000
         BR    R14                      RETURN TO CALLER                67800000
BAD      BADRET                                                         68100000
         DS    0F                       ALLIGN                          68130000
IAP03LA  DC    A(0)                                                     68160000
IAP03L   EQU   IAP03LA+3                SUBAREA LENGTH IN BITS          68190000
IAP03AA  DC    A(0)                                                     68220000
IAP03A   EQU   IAP03AA+3                MAX SUBAREA VALUE               68250000
IAP03SAT DC    A(0)                     ADDR OF SAT TABLE               68280000
IAP03EA  DC    A(0)                     16-SUBAREA LENGTH               68310000
IAP03CHI DC    X'0000FFFF'              MASK TO CLEAR HI ORDER          68340000
SATLNG   DC    AL2(SATLEN)                                              68400000
RVTLNG   DC    AL2(RVTLEN)                                              68700000
         TITLE 'IEDIAP04--TNT/MH INDEX TO NETWORK ADDR CONVERT SUBROUT' 69000000
IEDIAP04 CSECT                                                          69300000
         USING *,R15                                                    69600000
         B     AFTERLNG                 BRANCH AROUND LENGTH   @OX21215 69610082
         DC    A(IEDIAP05-IEDIAP04)     LENGTH FOR PAGE FIX    @0X21215 69620082
AFTERLNG EQU   *                                               @OX21215 69630082
         N     R1,IAP04CHI              CLEAR HI ORDER OF INPUT         69670000
         TM    IAP04INT,IAP4INIT        IS THIS FIRST ENTRY             69740000
         BO    IAP04SET                 BRANCH IF NOT                   69810000
         LR    R0,R1                    PRESERVE INPUT                  69900000
         GSAVTADR                                                       69970000
         OI    IAP04INT,IAP4INIT        INDICATE NOT FIRST ENTRY        70040000
         MVC   IAP04DX(2),SAVTMHDX      INIT MH INDEX                   70110000
         MVC   IAP04DL(2),SAVTNADL      INIT NAT GAS                    70180000
         MVC   IAP04NAT,SAVTNAT         INIT NAT ADDRESS                70250000
         LR    R1,R0                    RESTORE INPUT                   70320000
IAP04SET EQU   *                                                        70390000
         C     R1,IAP04DXA              IS IT AN MH INDEX               71700000
         BL    TTNMH                    BRANCH IF TTCIN                 72000000
         S     R1,IAP04DLA              SUBTRACT GAS IN NAT             72300000
TTNMH    BCTR  R1,0                     REDUCE FOR OFFSET CALC @YM06888 72600000
         MH    R1,NATLG                 COMPUTE NAT OFFSET     @YM06888 72900000
         A     R1,IAP04NAT              ADDRESS OF NAT ENTRY            73200000
         SR   R15,R15                   CLEAR RETURN REG                73800000
         ICM   R15,BYTE3+BYTE2,NATODAF-IEDNATD(R1) GET NET ADDR         74100000
         BR    R14                      RETURN TO CALLER                74400000
         DS    0F                       ALLIGN                          74450000
IAP04DXA DC    A(0)                     MH INDEX                        74500000
IAP04DX  EQU   IAP04DXA+2                                               74550000
IAP04DLA DC    A(0)                     AMOUNT OF GAS IN NAT            74600000
IAP04DL  EQU   IAP04DLA+2                                               74650000
IAP04NAT DC    A(0)                     ADDRESS OF NAT                  74700000
IAP04CHI DC    X'0000FFFF'              CLR HI ORDER MASK               74750000
NATLG    DC    AL2(NATLEN)                                              74800000
IAP04INT DC    X'00'                    FIRST ENTRY SWITCH              74850000
IAP4INIT EQU   X'80'                    SUBSEQUENT ENTRY VALUE          74900000
         TITLE 'IEDIAP05--TNT/MH INDEX TO TTE / MHTABLE ADDRESS CONV'   75300000
IEDIAP05 CSECT                                                          75600000
         USING *,R15                                                    75900000
         N     R1,HIOFF                 CLEAR HI ORDER         @YM05744 75950000
         TM    IAP05INT,IAP5INIT        IS THIS FIRST ENTRY    @YM06946 76200000
         BO    IAP05SET                 BRANCH IF NOT                   76300000
         OI    IAP05INT,IAP5INIT        SET FIRST TIME SWITCH  @YM06946 76350000
         LR    R0,R1                    SAVE INPUT             @YM06910 76400000
         GSAVTADR I=AVT                                                 76620000
         MVC   IAP05PT,AVTRNMPT         INIT TNT CONVERT ADDRESS        76650000
         L     R1,AVTSAVTP              GET SAVT ADDRESS       @YM06946 76655000
         DROP  R1                                                       76660000
         USING IEDNSVTD,R1              SAVT ADDRESSABILITY    @YM06946 76665000
         MVC   IAP05DX(2),SAVTMHDX      INIT MH INDEX                   76670000
         MVC   IAP05TBA,SAVTMHTB        INIT MH TABLE ADDRESS  @YM06909 76675000
         LR    R1,R0                    RESTORE INPUT                   76680000
IAP05SET EQU   *                                                        76710000
         C     R1,IAP05DXA              IS IT MH INDEX                  76800000
         BL    NOTMH                    BRANCH IF NOT                   77100000
         S     R1,IAP05DXA              POSITION TO MH INDEX            77400000
         MH    R1,MHTABLG               COMPUTE OFFSET                  78300000
         A     R1,IAP05TBA              MH TABLE ENTRY                  78600000
         L     R1,MHENTRY-IEDMHTD(R1)   MH ADDRESS                      78900000
         O     R1,TMHI                  INDICATE MH ADDRESS             79200000
         BR    R14                      RETURN TO CALLER                79500000
NOTMH    L     R15,IAP05PT              GET IEDQTNT ADDRESS             80100000
         BR    R15                      GO TO CONVERT ROUTINE WHO WILL  80700000
*                                       BR ON REG14 TO MY CALLER        81000000
MHTABLG  DC    AL2(MHTABLEN)                                            81300000
         DS    0F                                                       81600000
TMHI     DC    X'80000000'                                              81900000
HIOFF    DC    X'0000FFFF'                                     @YM05744 81910000
IAP05DXA DC    A(0)                                                     81920000
IAP05DX  EQU   IAP05DXA+2                                               81930000
IAP05TBA DC    A(0)                                                     81940000
IAP05PT  DC    A(0)                                                     81960000
IAP05INT DC    X'00'                    FIRST ENTRY SWITCH     @YM06946 81965000
IAP5INIT EQU   X'80'                                                    81970000
         TITLE 'IEDIAP06--FIND LCB ADDRESS FOR A GIVEN SUBAREA'         82200000
IEDIAP06 CSECT                                                          82500000
         USING *,R15                                                    82570000
         N     R1,P06CHI                CLEAR HI ORDER OF INPUT         82640000
         LR    R0,R1                    PRESERVE INPUT                  82710000
         CLI   P06SUBL,INIT             IS THIS FIRST ENTRY             82800000
         BNE   P06SET                   BRANCH IF NOT                   82880000
         SPACE                                                          82960000
**********************************************************************  83040000
*        PERFORM INITIALIZATION ON FIRST ENTRY TO THIS CSECT         *  83120000
**********************************************************************  83200000
         SPACE                                                          83280000
         GSAVTADR                                                       83400000
         MVC   P06SUBL(1),SAVTSUBL      INIT SUBAREA LENGTH             83700000
         MVC   P06SUBA(1),SAVTSUBA      INIT MAX SUBA VALUE             84000000
         MVC   P06SAT,SAVTSAT           INIT SAT POINTER                84300000
         LA    R1,TWOB                  16 BITS IN TWO BYTES            84600000
         S     R1,P06SBLA               MINUS SUBAREA BIT LENGTH        84900000
         ST    R1,P06SBLA               SAVE FOR LATER USE              85200000
*********************************************************************   85500000
*        END OF FIRST ENTRY INITIALIZATION CODE                     *   85800000
*********************************************************************   86100000
         SPACE                                                          86400000
P06SET   EQU   *                                                        86700000
         SPACE                                                          87000000
*********************************************************************** 87300000
*        DEVELOP SUBAREA ADDRESS                                      * 87600000
*********************************************************************** 87900000
         SPACE                                                          88200000
         L     R1,P06SBLA                SUBAREA BIT LENGHT             88500000
         SRL   R0,0(R1)                  SHIFT OUT ELEMENT ADDRESS      88700000
         SPACE                                                          88900000
*********************************************************************** 89100000
*        VALIDATE SUBAREA ADDRESS                                     * 89400000