         MACRO                                                          04000010
&NAME    IEDHJN &LABEL,&HJN                                             08000010
         LCLC  &HJA,&HJB                                                12000010
&HJA     SETC  '&SYSPARM'(1,4)                                          16000010
&HJB     SETC  '&SYSPARM'(5,4)                                          20000010
         AIF   ('&LABEL' EQ '').NOBRNCH                                 24000010
         B     &LABEL .                 BR AROUND CONSTANTS             28000010
         SPACE 2                                                        32000010
.NOBRNCH ANOP                                                           36000010
         AIF   ('&NAME' EQ '').NOLABEL                                  40000010
         DC    C'&NAME' .              MODULE IDENTIFIER                44000010
.NOLABEL ANOP                                                           48000010
         DC    X'&HJA' .                DATE OF MODIFICATION            52000010
         AIF   ('&HJN' NE 'HJN').DATE                                   56000010
         DC    X'&HJB' .                HJN OF MODIFICATION             60000010
.DATE    ANOP                                                           64000010
         AIF   ('&LABEL' EQ '').NOLBL                                   68000010
         SPACE 2                                                        72000010
&LABEL   DS    0H                                                       76000010
.NOLBL   ANOP                                                           80000010
         MEND                                                           84000010
