         MACRO                                                          00800010
&NAME    IEDQMSG   &MSGID=,&FUNCT=,&INBUF=,&LINK=,&INCNT=,&MSG=,&RET=, X01600010
               &RETREG=R14,&PREG1=PARMREG1,&PREG0=PARMREG0,            X02400010
               &OTBUF=,&OTCNT=                                          03200010
         LCLB      &ID,&FN,&OCT,&IBF,&OBF,&MG,&LN,&RT,&ICT              04000010
         LCLC      &FLAGS,&FLAGS1,&REPCNT,&RETURN                       04800010
*                                                                       05600010
*        TOTE MESSAGE CALL MACRO                                        06400010
*                                                                       07200010
*        STATUS = VERSION 10.0                                 @Y17XAUU 08000010
*                                                                       08800010
&ID      SETB      (T'&MSGID NE 'O')                                    09600010
&FN      SETB      (T'&FUNCT NE 'O')                                    10400010
&ICT     SETB      (T'&INCNT NE 'O')                                    11200010
&IBF     SETB      (T'&INBUF NE 'O')                                    12000010
&OBF     SETB      (T'&OTBUF NE 'O')                                    12800010
&MG      SETB      (T'&MSG NE 'O')                                      13600010
&RT      SETB      (T'&RET NE 'O')                                      14400010
&LN      SETB      (T'&LINK NE 'O')                                     15200010
&OCT     SETB      (T'&OTCNT NE 'O')                                    16000010
         AIF       (&ID+&MG+&OBF GT 1).MGER010                          16800010
         AIF       (&OCT+&OBF EQ 1).MGER030                             17600010
         AIF       (&ID+&MG+&OBF EQ 0).BYP010                           18400010
         AIF       (&FN NE 1).MGER040                                   19200010
.BYP010  ANOP                                                           20000010
         AIF       (&ID+&MG+&OBF+&LN EQ 0).MGER050                      20800010
         AIF       (&RT EQ 0).BYP020                                    21600010
         AIF       (&ID+&MG+&OBF EQ 0).MGER060                          22400010
.BYP020  ANOP                                                           23200010
         AGO       .CONT010                                             24000010
.MGER010 ANOP                                                           24800010
         MNOTE 12,'ONLY ONE PARM FROM MSGID, MSG AND OTBUF ALLOWED'     25600010
         MEXIT                                                          26400010
.MGER030 ANOP                                                           27200010
         MNOTE 12,'OTBUF AND OTCNT MUST ALWAYS APPEAR TOGETHER'         28000010
         MEXIT                                                          28800010
.MGER040 ANOP                                                           29600010
         MNOTE 12,'FUNCT MUST BE SPECIFIED WITH MSGID,MSG OR OTBUF'     30400010
         MEXIT                                                          31200010
.MGER050 ANOP                                                           32000010
         MNOTE 12,'MSGID,MSG,OTBUF OR LINK MUST BE SPECIFIED'           32800010
         MEXIT                                                          33600010
.MGER060 ANOP                                                           34400010
         MNOTE 12,'RET MUST APPEAR WITH MSGID,MSG OR OTBUF'             35200010
         MEXIT                                                          36000010
.CONT010 ANOP                                                           36800010
&RETURN  SETC      '$MRT&SYSNDX'                                        37600010
         AIF   (T'&RET EQ 'O').BYP060                                   38400010
&RETURN  SETC  '&RET'                                                   39200010
.BYP060  ANOP                                                           40000010
         AIF   (&ID+&OBF+&MG EQ 0).BYP250                               40800010
         AIF   (N'&FUNCT EQ 0).BYP130                                   41600010
&REPCNT  SETC      '0'                                                  42400010
         AIF   (T'&INCNT EQ 'O').BYP120                                 43200010
&REPCNT  SETC      '&INCNT'                                             44000010
.BYP120  ANOP                                                           44800010
&FLAGS   SETC      '$&FUNCT(1)'                                         45600010
         AIF   (N'&FUNCT EQ 1).BYP180                                   46400010
         AIF   (N'&FUNCT EQ 2).BYP160                                   47200010
.BYP130  ANOP                                                           48000010
         MNOTE 12,'MISSING OR INVALID FUNCT= OPERAND'                   48800010
         MEXIT                                                          49600010
.BYP160  ANOP                                                           50400010
&FLAGS1  SETC      '$&FUNCT(2)'                                         51200010
.BYP180  ANOP                                                           52000010
&NAME    DS    0H .               TOTE MESSAGE CALL                     52800010
         LA    &PREG0,&RETURN .        GET RETURN ADDRESS               53600010
         BAL   &PREG1,$MSGLINK .        BRANCH TO LINKAGE SUBROUTINE    54400010
         AIF   (T'&MSGID EQ 'O').BYP190                                 55200010
         DC    AL2(&MSGID) .         MESSAGE IDENTIFIER                 56000010
         AGO   .BYP195                                                  56800010
.BYP190  ANOP                                                           57600010
         DC    XL2'8000' .        INDICATES MESSAGE IS SUPPLIED         58400010
* .                                 IN PARAMETER LIST                   59200010
.BYP195  ANOP                                                           60000010
         AIF   (N'&FUNCT EQ 2).BYP200                                   60800010
         DC    AL1(&FLAGS) .         FUNCTION FLAGS                     61600010
         AGO   .BYP210                                                  62400010
.BYP200  ANOP                                                           63200010
         DC    AL1(&FLAGS+&FLAGS1) .  FUNCTION FLAGS           @Y17XAUU 64000010
.BYP210  ANOP                                                           64800010
         DC    AL1(&REPCNT) .            REPLY BUFFER LENGTH            65600010
         AIF   (T'&OTBUF EQ 'O').BYP230                                 66400010
         DC    AL1(&OTCNT) .           OUT MESSAGE LENGTH               67200010
         DC    AL3(&OTBUF) .       OUT MESSAGE ADDRESS                  68000010
         AGO   .BYP240                                                  68800010
.BYP230  ANOP                                                           69600010
         AIF   (T'&MSG EQ 'O').BYP240                                   70400010
         DC    AL1($MG&SYSNDX.E-$MSG&SYSNDX.) . OUT MESSAGE LENGTH      71200010
         DC    AL3($MSG&SYSNDX.) .    OUT MESSAGE ADDRESS               72000010
$MSG&SYSNDX DC    C&MSG                                                 72800010
$MG&SYSNDX.E DS    0C                                                   73600010
.BYP240  ANOP                                                           74400010
.BYP250  ANOP                                                           75200010
         AIF   (T'&LINK EQ 'O').BYP450                                  76000010
$MSGLINK DS    0H .               LINK ROUTINE FOR TOTE MSG CALL        76800010
         AIF   ('&LINK' EQ 'XCTL').BYP350                               77600010
         LINK  EP=IEDQWK .        LINK TO TOTE MESSAGE MODULE           78400010
         LR    &RETREG,&PREG0 .          GET RETURN ADDRESS             79200010
         BR    &RETREG .              BRANCH TO RETURN POINT            80000010
         AGO   .BYP370                                                  80800010
.BYP350  ANOP                                                           81600010
         XCTL  (2,12),EP=IEDQWM2 .      GO TO TOTE TRACE MODULE  S99528 82400010
.BYP370  ANOP                                                           83200010
*                                                                       84000010
$CEC     EQU   X'80' .            CONTROL TERMINAL MESSAGE FLAG         84800010
$REP     EQU   X'40' .            C.T. MESSAGE WITH REPLY FLAG          85600010
$PRT     EQU   X'20' .            PRINTER MESSAGE FLAG                  86400010
$SRC     EQU   X'10' .            SOURCE MESSAGE FLAG          @Y17XAUU 87200010
.BYP450  ANOP                                                           88000010
$MRT&SYSNDX DS    0H .                RETURN ADDRESS                    88800010
         MEND                                                           89600010
