         MACRO                                                          05000000
&NAME    IFDCOM &RELEASE=MVM22                                   Y02008 08000002
         LCLC  &V,&X,&Z,&S                                      X01906  11000001
&S       SETC  '&RELEASE'                                       X01906  14000001
&V       SETC  'DS'                                                     20000000
&X       SETC  'C'                                                      25000000
&Z       SETC  ' '                                                      30000000
         IFDPATCH                                                       32000002
         EJECT                                                          35000000
         AIF   (T'&NAME EQ 'O').SKP1                                    40000000
&NAME    DSECT                                                          45000000
         IFDPF1 &V,&X,&Z,&S                                     X01906  50000001
         EJECT                                                          55000000
         CSECT                                                          60000000
         MEXIT                                                          65000000
.SKP1    ANOP                                                           70000000
         MNOTE 8,'NAME FIELD MISSING, NO STATEMENTS GENERATED'          75000000
         MEND                                                           80000000
