         MACRO                                                          10000000
&NAME    IFDMOD &LOAD=,&CALL=,&DELETE=,&LIST=,&C=2                      20000000
*/***********************************************************@ZM00952*/ 22000003
*/*           IFDMOD                                         @ZM00952*/ 24000003
*/*OLTEP VS2                                                 @ZM00952*/ 26000003
*/*                                                          @ZM00952*/ 28000003
&NAME    BRING LOAD=&LOAD,CALL=&CALL,DELETE=&DELETE,LIST=&LIST,C=&C     30000000
         MEND                                                           40000000
