         TITLE 'IFDOLT22 ALLOCATE MODULE'                               00010000
         TITLE 'IFDOLT22 ALLOCATE MODULE'                               00020000
         PRINT OFF                                                      00030000
         MACRO                                                          00040000
&NAME   ALOCAT &CDSADR=0,&TYPE=,&SCRATCH=,&MF=,&MAP=NO,&LSTNAME=        00050000
.*                                                                      00060000
         GBLB  &EXECUTV,&E536454                                        00070000
         LCLA  &A,&B,&COUNT                                             00080000
         LCLB  &SWITCH,&B1,&B2,&B3                                      00090000
         LCLC  &F,&Z,&CHAR                                              00100000
.*                                                                      00110000
         AIF   ('&MAP' EQ 'YES').MAP1                                   00120000
         AIF   (T'&MF EQ 'O').STD                                       00130000
         AIF   ('&MF' EQ 'L' OR '&MF' EQ 'S').STD                       00140000
         AIF   ('&MF'(1,3) NE '(E,').MFERROR                            00150000
&CHAR    SETC  '&NAME'                                                  00160000
         AIF   ('&MF'(4,3) EQ '(1)').RG1                                00170000
         AIF   ('&MF'(4,1) EQ '(').RG2                                  00180000
&CHAR    LA    R1,&MF(2) .         ADDRESS OF PARAMETER LIST            00190000
&CHAR    SETC  ' '                                                      00200000
         AGO   .RG1                                                     00210000
.RG2     ANOP                                                           00220000
&COUNT   SETA  K'&MF(2)-2                                               00230000
&F       SETC  '&MF(2)'(2,&COUNT)                                       00240000
         AIF   ('&F'(1,1) EQ 'R').C724                                  00250000
&CHAR    LR    R1,R&F .            ADDRESS OF PARAMETER LIST            00260000
&CHAR    SETC  ' '                                                      00270000
         AGO   .RG1                                                     00280000
.C724    ANOP                                                           00290000
&CHAR    LR    R1,&F .             ADDRESS OF PARAMETER LIST            00300000
&CHAR    SETC  ' '                                                      00310000
.RG1     ANOP                                                           00320000
&CHAR    BAL   R14,#EXIT .        BRANCH TO LINKAGE SUBROUTINE          00330000
         MEXIT                                                          00340000
.MFERROR MNOTE 8,'MF VALUE (&MF) INCORRECT, NO STATEMENTS GENERATED.'   00350000
         MEXIT                                                          00360000
.STD     ANOP                                                           00370000
&B1      SETB  (N'&TYPE GT 0)                                           00380000
&B2      SETB  (T'&SCRATCH NE 'O')                                      00390000
         AIF   (&B1+&B2 EQ 2).ERR                                       00400000
         AIF   (&B1).ALO                                                00410000
         AIF   (&B2).ALO2                                               00420000
         AGO   .ALO3                                                    00430000
.ALO     ANOP                                                           00440000
         AIF   (N'&TYPE NE 3).ERR1                                      00450000
&A       SETA  1                                                        00460000
.TST1    ANOP                                                           00470000
         AIF   (K'&TYPE(2) EQ 0).ERR2                                   00480000
.TST2    ANOP                                                           00490000
         AIF   (K'&TYPE(3) EQ 0).ERR3                                   00500000
         AIF   (&B3).EXIT                                               00510000
         AIF   ('&TYPE(1)' NE 'CYL').ALO1                               00520000
&B       SETA  200                                                      00530000
         AGO   .ALO3                                                    00540000
.ALO1    ANOP                                                           00550000
         AIF   (K'&TYPE(1) EQ 0 OR '&TYPE(1)' EQ 'TRK').ALO1A           00560000
         MNOTE 8,'TYPE= PARAMETER INCORRECTLY SPECIFIED.'               00570000
&B3      SETB  1                                                        00580000
.ALO1A   ANOP                                                           00590000
&B       SETA  136                                                      00600000
         AGO   .ALO3                                                    00610000
.ALO2    ANOP                                                           00620000
&A       SETA  2                                                        00630000
.ALO3    ANOP                                                           00640000
         AIF   ('&MF' EQ 'L').LIST                                      00650000
&NAME    LA    R14,R&SYSNDX .     RETURN ADDRESS                        00660000
         CNOP  0,4                                                      00670000
         BAL   R1,#EXIT .          BRANCH TO LINKAGE SUBROUTINE         00680000
&CHAR    SETC  '&LSTNAME'                                               00690000
         AGO   .STD1                                                    00700000
.LIST    ANOP                                                           00710000
&CHAR    SETC  '&NAME'                                                  00720000
.STD1    ANOP                                                           00730000
         AIF   (&EXECUTV).OLTSEP                                        00740000
&CHAR    DC    B'00000000' .       CONTROL PROGRAM FLAGS                00750000
         AGO   .OLTSEP1                                                 00760000
.OLTSEP  ANOP                                                           00770000
&CHAR    DC    B'00000001' .       CONTROL PROGRAM FLAGS                00780000
.OLTSEP1 ANOP                                                           00790000
         DC    AL1(2) .            MACRO LEVEL                          00800000
         DC    CL2'22' .           MACRO ID                             00810000
         DC    A(&CDSADR) .        ADDRESS OF CDS INFO                  00820000
         AIF   (&B1).ALO4                                               00830000
         DC    A(0) .              ADDRESS OF EXTENTS                   00840000
         AGO   .ALO5                                                    00850000
.ALO4    ANOP                                                           00860000
         DC    A(&TYPE(3)) .       ADDRESS OF EXTENTS                   00870000
.ALO5    ANOP                                                           00880000
         AIF   (&B1).ALO6                                               00890000
         DC    AL3(0)              AMOUNT OF SPACE REQUIRED             00900000
         AGO   .ALO7                                                    00910000
.ALO6    ANOP                                                           00920000
         DC    AL3(&TYPE(2)) .     AMOUNT OF SPACE REQUIRED             00930000
.ALO7    ANOP                                                           00940000
         DC    AL1(&B) .           TYPE                                 00950000
*                                                                       00960000
*                                  TYPE FLAGS DEFINITION:               00970000
*                                  200  CYL                             00980000
*                                  136  TRK                             00990000
*                                                                       01000000
         DC    AL1(&A) .           FUNCTION FLAGS                       01010000
*                                                                       01020000
*                                  FUNCTION FLAGS DEFINITION:           01030000
*                                  0  DEMOUNTABLE ALLOCATION            01040000
*                                  1  ALLOCATE                          01050000
*                                  2  SCRATCH                           01060000
         AIF   ('&MF' EQ 'L').EXIT                                      01070000
R&SYSNDX DS    0H .                RETURN ON HALFWORD BOUNDARY          01080000
         AGO   .EXIT                                                    01090000
.ERR     MNOTE 8,'TYPE= AND SCRATCH= MAY NOT BE USED TOGETHER.'         01100000
&B3      SETB  1                                                        01110000
         AGO   .ALO                                                     01120000
.ERR1    MNOTE 8,'TYPE= PARAMETER INCORRECTLY SPECIFIED.'               01130000
&B3      SETB  1                                                        01140000
         AGO   .TST1                                                    01150000
.ERR2    MNOTE 8,'AMOUNT MUST BE SPECIFIED WHEN USING TYPE=.'           01160000
&B3      SETB  1                                                        01170000
         AGO   .TST2                                                    01180000
.ERR3    MNOTE 8,'EXTENT ADDRESS MUST BE SPECIFIED WHEN USING TYPE=.'   01190000
         MEXIT                                                          01200000
.MAP1    ANOP                                                           01210000
ALOMAP   DSECT                                                          01220000
&Z       SETC  '$'                                                      01230000
         AIF   (&E536454).ZIPPER                                        01240000
         DC    XL1'0' .            CONTROL PROGRAM FLAGS                01250000
         DC    XL1'0' .            MACROL LEVEL                         01260000
         DC    XL2'0' .            MACROL ID                            01270000
         AGO   .ZIPPED                                                  01280000
.ZIPPER  ANOP                                                           01290000
&Z.ALTORMG DC  XL1'0' .            CONTROL PROGRAM FLAGS                01300000
&Z.ALOLEVL DC  XL1'0' .            MACRO LEVEL                          01310000
&Z.ALOIDNT DC  XL2'0' .            MACRO ID                             01320000
.ZIPPED  ANOP                                                           01330000
&Z.ALOCDSA DC  A(0) .              ADDRESS OF CDS INFO                  01340000
&Z.ALOCADR DC  A(0) .              ADDRESS OF EXTENTS                   01350000
&Z.ALOAMT  DC  XL3'0' .            AMOUNT OF SPACE REQUIRED             01360000
&Z.ALOFLGT DC  XL1'0' .            TYPE                                 01370000
&Z.ALOFLAG DC  XL1'0' .            FUNCTION FLAGS                       01380000
.EXIT    MEND                                                           01390000
         EJECT                                                          01400000
         PRINT ON                                                       01410000
         LCLA  &T,&SPN                                            0003  01420000
.@001    ANOP                                                     0003  01430000
IFDOLT22 CSECT ,                                                  0003  01440000
         BC    15,24(0,@F)                                              01450000
         DC    C'IFDOLT22 29 MAR 74'                             0003  01460000
         ST    @E,12(0,@D)                                        0003  01470000
         STM   @0,@C,20(@D)                                       0003  01480000
         BALR  @B,0                                               0003  01490000
@PSTART  DS    0H                                                 0003  01500000
         USING @PSTART+00000,@B                                   0003  01510000
         ST    @D,@SAV001+4                                       0003  01520000
         LA    @F,@SAV001                                         0003  01530000
         ST    @F,8(0,@D)                                         0003  01540000
         LR    @D,@F                                              0003  01550000
DIAG     EQU   59                                                       01560000
THREETWO EQU   32                                                       01570000
         USING ALOMAP,5                                                 01580000
         USING CHASCT,2                                                 01590000
         DS    0H                                                       01600000
*         R5=R1;                    /* SAVE REG. 1 IN REG. 5.         * 01610000
         LR    @5,@1                                              0073  01620000
*         R9=ADDR(IFDMSG22);        /* POINTER TO MESSAGE MODULE 21050* 01630000
         L     @C,@V1              ADDRESS OF IFDMSG22            0074  01640000
         LR    @9,@C                                              0074  01650000
*         R7=UNICTR;                /* GET NUMBER OF DEVICES UNDER TST* 01660000
         SR    @7,@7                                              0075  01670000
         IC    @7,UNICTR                                          0075  01680000
*         R3=DEVTBPTR;              /* INITIALIZE DEVTAB POINTER      * 01690000
         L     @3,DEVTBPTR                                        0076  01700000
*         ALOCATSW='00'X;           /* CLEAR IFDOLT22'S FLAGS AND     * 01710000
         MVI   ALOCATSW,X'00'                                     0077  01720000
*                                   /* DECODE PARAMETERS.             * 01730000
*         IF RETAINAC='1'B THEN          /* IS REI ACTIVE?      S20203* 01740000
         TM    A00019,B'10000000'                                 0078  01750000
         BC    12,@9FF                                            0078  01760000
*         DPMSGREI='1'B;                /* REM SITE GETS MSG    XM0097* 01770000
         OI    A00022,B'00000001'                                 0079  01780000
* ALOCAT05:                                                             01790000
*         IF STAEXIT='1'B THEN      /* IS STAE EXIT IN CONTROL.       * 01800000
@9FF     EQU   *                                                  0080  01810000
ALOCAT05 TM    OLTEPSW6,B'00000001'                               0080  01820000
         BC    12,@9FE                                            0080  01830000
*           DO;                     /* YES,                           * 01840000
*           IF NDR='1'B THEN        /* ARE THERE DEVICES ENTERED.     * 01850000
         TM    OLTEPSW2,B'00000100'                               0082  01860000
*             GO TO ALOCAT50;       /* NO, RETURN TO STAE EXIT ROUTINE* 01870000
         BC    01,ALOCAT50                                        0083  01880000
*           IF ALLOCATE='0'B THEN   /* WAS THIS DEVICE ALLOCATED.     * 01890000
         TM    12(@3),B'00001000'                                 0084  01900000
         BC    05,@9FD                                            0084  01910000
*             DO;                   /* NO,                            * 01920000
*             R7=R7-1;              /* DECREMENT NUMBER OF DEVICES.   * 01930000
         BCTR  @7,0                                               0086  01940000
*             R3=R3+56;             /* POINT TO NEXT DEVICE      21050* 01950000
         AH    @3,@D1                                             0087  01960000
*                                   /* IN TABLE.                 21050* 01970000
*             IF R7=0 THEN          /* ARE ALL DEVICES CHECKED.       * 01980000
         LTR   @7,@7                                              0088  01990000
*               GO TO ALOCAT50;     /* YES, RETURN TO STAE EXIT.      * 02000000
         BC    08,ALOCAT50                                        0089  02010000
*             GO TO ALOCAT05;       /* CHECK NEXT DEVICE.             * 02020000
         BC    15,ALOCAT05                                        0090  02030000
*             END;                                                      02040000
*             UNUNIT1(5:14)=DDNAME(ALCINDEX); /* PUT DDNAME     YM7637* 02050000
@9FD     SR    @C,@C                                              0092  02060000
         IC    @C,54(0,@3)                                        0092  02070000
         MH    @C,@D2                                             0092  02080000
         LA    @E,DDNAME-10(@C)                                   0092  02090000
         MVC   UNTUNIT+4(10),0(@E)                                0092  02100000
*                                        /* IN DYN UNALLOC PLISTYM7637* 02110000
*           GO TO ALOCAT10;         /* DEVICE WAS ALLOCATED.          * 02120000
         BC    15,ALOCAT10                                        0093  02130000
*           END;                                                        02140000
*         IF ALOLEVL^='02'X|        /* IS THIS MACRO LEVEL SUPPORTED. * 02150000
*           NDR='1'B THEN           /* NO, RETURN CODE 04. ARE DEVICES* 02160000
@9FE     CLI   ALOLEVL,X'02'                                      0095  02170000
         BC    07,@9FC                                            0095  02180000
         TM    OLTEPSW2,B'00000100'                               0095  02190000
         BC    12,@9FB                                            0095  02200000
*             GO TO ALOCAT52;       /* ENTERED. NO, RETURN CODE 04.   * 02210000
         BC    03,ALOCAT52                                        0096  02220000
*         IF ALOCDSA=0 THEN         /* FIND THE DEVICE ADDRESS THAT   * 02230000
@9FB     SR    @F,@F                                              0097  02240000
         C     @F,ALOCDSA                                         0097  02250000
         BC    07,@9FA                                            0097  02260000
*           DO;                     /* WANTS ALLOCATION.              * 02270000
*           R3=PRIDVPTR;            /* PRIMARY ALLOCATION, GET POINTER* 02280000
         L     @3,PRIDVPTR                                        0099  02290000
*           GO TO ALOCAT10;         /* FROM COMMON AREA.              * 02300000
         BC    15,ALOCAT10                                        0100  02310000
*           END;                                                        02320000
*         DO I=R7 TO 1 BY -1;       /* SECONDARY ALLOCATION, FIND21050* 02330000
@9FA     LR    @4,@7                                              0102  02340000
         LTR   @4,@4                                              0102  02350000
         BC    12,@DO9F8                                          0102  02360000
*         IF CDSDEVAD=DEVAD THEN    /* ENTRY IN DEVTABLE THAT MATCHES * 02370000
@DO9F9   L     @C,ALOCDSA                                         0103  02380000
         CLC   0(4,@C),32(@3)                                     0103  02390000
         BC    07,@9F5                                            0103  02400000
*           DO;                     /* DEVICE REQUESTING THE          * 02410000
*           IF GRABBED='1'B|        /* ALLOCATION. IS IT THE     21050* 02420000
*              PRIMARY='1'B THEN    /* RIGHT MATCH. YES,         21050* 02430000
         TM    12(@3),B'00000100'                                 0105  02440000
         BC    01,@9F4                                            0105  02450000
         TM    12(@3),B'01000000'                                 0105  02460000
         BC    12,@9F3                                            0105  02470000
*                GO TO ALOCAT10;    /* CONTINUE. NO, FIND RIGHT  21050* 02480000
         BC    03,ALOCAT10                                        0106  02490000
*           END;                    /* DEVICE.                   21050* 02500000
@9F3     EQU   *                                                  0107  02510000
*         R3=R3+56;                 /* CHECK NEXT DEVICE IN      21050* 02520000
@9F5     AH    @3,@D1                                             0108  02530000
*                                   /* DEVICE TABLE.             21050* 02540000
*         END;                                                          02550000
*         GO TO ALOCAT52;           /* RETURN CODE 04.                * 02560000
         BCT   @4,@DO9F9                                          0109  02570000
         BC    15,ALOCAT52                                        0110  02580000
* ALOCAT10:                                                             02590000
*         /************************************************************ 02600000
*         /*             ROUTINE TO CHECK DEVICE STATUS               * 02610000
*         /************************************************************ 02620000
*         R8=UCBPTR;                /* GET POINTER TO UCB.       21050* 02630000
ALOCAT10 L     @8,8(0,@3)                                         0111  02640000
*         ROPTMIN2='22';            /* SET UP TO PASS SVC SECURITY.   * 02650000
         MVC   ROPTMIN2(2),@C5                                    0112  02660000
*         UCBADDRS=UCBADDR;         /* PUT DEVICE REQUESTING          * 02670000
         MVC   SVCPLIST(4),8(@3)                                  0113  02680000
*                                   /* ALLOCATION UCB ADDRESS IN FIRST* 02690000
*                                   /* WORD OF SVC PARAMETER LIST.    * 02700000
*         R0=ADDR(ROPT);            /* INITIALIZE POINTER TO SVCPLIST.* 02710000
         LA    @0,ROPT                                            0114  02720000
*         R1='003C'X;               /* PUT PROPER CALL CODE IN  YM7282* 02730000
         L     @1,@X6                                             0115  02740000
*                                   /* REG. 1 FOR SVC CALL.           * 02750000
*         GEN(SVC   DIAG);          /* ISSUE SVC FOR DEVICE STATUS.   * 02760000
         SVC   DIAG                                                     02770000
         DS    0H                                                       02780000
*         IF STAEXIT='1'B THEN      /* IS STAE EXIT IN CONTROL.       * 02790000
         TM    OLTEPSW6,B'00000001'                               0117  02800000
*           GO TO ALOCAT42;         /* YES, PERFORM SCRATCH.          * 02810000
         BC    01,ALOCAT42                                        0118  02820000
*         IF STATUS='1'B&           /* CHECK TO MAKE SURE DEVICE 21050* 02830000
*           DEVSTAT='1'B THEN       /* STATUS HAS NOT CHANGED,   21050* 02840000
         TM    3(@8),B'10000000'                                  0119  02850000
         BC    12,@9F2                                            0119  02860000
         TM    12(@3),B'10000000'                                 0119  02870000
*             GO TO ALOCAT20;       /* SINCE TEST RUN DEFINITION 21050* 02880000
         BC    03,ALOCAT20                                        0120  02890000
*         IF STATUS='0'B&           /* TIME.                     21050* 02900000
*           DEVSTAT='0'B THEN       /*                           21050* 02910000
@9F1     EQU   *                                                  0121  02920000
@9F2     TM    3(@8),B'10000000'                                  0121  02930000
         BC    05,@9F0                                            0121  02940000
         TM    12(@3),B'10000000'                                 0121  02950000
*             GO TO ALOCAT20;       /*                           21050* 02960000
         BC    10,ALOCAT20                                        0122  02970000
*         /************************************************************ 02980000
*         /*     PWTO MESSAGE INDICATING DEVICE STATUS CHANGED.       * 02990000
*         /************************************************************ 03000000
*         R1=MSGPTR56;              /* GET POINTER TO MESSAGE IFD156I.* 03010000
@9EF     EQU   *                                                  0123  03020000
@9F0     L     @1,8(0,@9)                                         0123  03030000
*         MSG56I(16:23)=EBCDICAD;   /* PUT EBCDIC DEVICE ADDR IN 21050* 03040000
         MVC   19(8,@1),0(@3)                                     0124  03050000
*                                   /* MESSAGE.                       * 03060000
*         GEN(PWTO  REG=(1));       /* PRINT MESSAGE.                 * 03070000
         PWTO  REG=(1)                                                  03080000
         DS    0H                                                       03090000
*         BYPTST='1'B;              /* SET FLAG TO BYPASS TESTS.      * 03100000
         OI    OLTEPSW3,B'00100000'                               0126  03110000
*         SAVE4=SCHEDSA;            /* GET SET TO RETURN TO SCHEDULER.* 03120000
         MVC   4(4,@D),SCHEDSA                                    0127  03130000
*         GO TO ALOCAT60;           /* RETURN TO SCHEDULER.           * 03140000
         BC    15,ALOCAT60                                        0128  03150000
* ALOCAT20:                                                             03160000
*         /************************************************************ 03170000
*         /*            DETERMINE WHAT IS REQUESTED BY USER           * 03180000
*         /************************************************************ 03190000
*         IF CLASS^='20'X THEN      /* IS DEVICE DASD. NO, RETURN21050* 03200000
ALOCAT20 CLI   18(@8),X'20'                                       0129  03210000
*           GO TO ALOCAT52;         /* CODE 04.                  21050* 03220000
         BC    07,ALOCAT52                                        0130  03230000
*         IF TYPE>'05'X&            /* LEGAL DEVICE              01906* 03240000
*           TYPE<'10'X THEN         /*                           21050* 03250000
         CLI   19(@8),X'05'                                       0131  03260000
         BC    12,@9EE                                            0131  03270000
         CLI   19(@8),X'10'                                       0131  03280000
*             GO TO ALOCAT22;       /*                           21050* 03290000
         BC    05,ALOCAT22                                        0132  03300000
*         GO TO ALOCAT52;           /*                           21050* 03310000
         BC    15,ALOCAT52                                        0133  03320000
* ALOCAT22:                                                             03330000
*         IF ALCINDEX='00'X THEN    /* HAS THIS BEEN ALLOCATED  YM7282* 03340000
ALOCAT22 CLI   54(@3),X'00'                                       0134  03350000
*           GO TO ALOCAT34;         /* PREVIOUSLY. NO, CONTINUE YM7282* 03360000
         BC    08,ALOCAT34                                        0135  03370000
*                                   /* YES, PLACE DDNAME IN SVC YM7282* 03380000
*                                   /* 99 PLIST FOR UNALLOC     YM7282* 03390000
*         UNUNIT1(5:14)=DDNAME(ALCINDEX); /*                    YM7282* 03400000
         SR    @C,@C                                              0136  03410000
         IC    @C,54(0,@3)                                        0136  03420000
         MH    @C,@D2                                             0136  03430000
         LA    @E,DDNAME-10(@C)                                   0136  03440000
         MVC   UNTUNIT+4(10),0(@E)                                0136  03450000
* ALOCAT34:                         /*                          YM7282* 03460000
*         IF ALOFLAG='02'X THEN     /* IS A SCRATCH REQUESTED.        * 03470000
ALOCAT34 CLI   ALOFLAG,X'02'                                      0137  03480000
*           GO TO ALOCAT40;         /* YES, GO TO SCRATCH ROUTINE.    * 03490000
         BC    08,ALOCAT40                                        0138  03500000
*         IF ALOFLAG='01'X THEN     /* IS ALLOCATION FOR NON-DEMOUNT- * 03510000
         CLI   ALOFLAG,X'01'                                      0139  03520000
*           GO TO ALOCAT30;         /* ABLES. YES, GO TO ROUTINE FOR  * 03530000
         BC    08,ALOCAT30                                        0140  03540000
*                                   /* NON-DEMOUNTABLE ALLOCATION.    * 03550000
*         IF ALOFLAG^='00'X THEN    /* IS REQUEST FOR FULL EXTENTS    * 03560000
         CLI   ALOFLAG,X'00'                                      0141  03570000
*           GO TO ALOCAT52;         /* DEMOUNTABLE ALLOCATION. NO,    * 03580000
         BC    07,ALOCAT52                                        0142  03590000
*                                   /* RETURN CODE 04.                * 03600000
*         /************************************************************ 03610000
*         /*                                                          * 03620000
*         /*                 DEMOUNTABLE ALLOCATION                   * 03630000
*         /*                                                          * 03640000
*         /************************************************************ 03650000