         TITLE '     IFDOLT08--OLD DPRINT  WRITE INTERFACE.'            00010000
         MACRO                                                          00020000
&NAME    OLDCONV &TYPE,&FROM,&TO,&CNT                                   00030000
         LCLA  &FLAG                                                    00040000
&NAME    LA    R14,R&SYSNDX .              RETURN ADDRESS               00050000
         L     R15,OLTTAB+12 .          TRANSIENT MANAGER ENTRY POINT   00060000
         CNOP  2,4 .                    BOUNDARY ALIGNMENT              00070000
         BALR  R1,R15  .                LINK TO TRANSIENT MANAGER       00080000
         DC    A(&FROM) .               FROM ADDRESS                    00090000
         DC    A(&TO) .                 TO ADDRESS                      00100000
         DC    A(*+4) .                 ADDRESS OF TYPE AND COUNT       00110000
         DC    XL2'00' .                BULL BYTES                      00120000
         AIF   ('&TYPE' EQ 'EH').SKP1                                   00130000
&FLAG    SETA  32768                                                    00140000
.SKP1    ANOP                                                           00150000
         DC    AL2(&CNT+&FLAG) .        TYPE AND COUNT                  00160000
R&SYSNDX DS    0H .                     RETURN POINT                    00170000
         MEND                                                           00180000
         TITLE '              IFDOLT08--OLD DPRINT  WRITE INTERFACE.'   00190000
         LCLA  &T,&SPN                                            0003  00200000
.@001    ANOP                                                     0003  00210000
IFDOLT08 CSECT ,                                                  0003  00220000
         BC    15,24(0,@F)                                              00230000
         DC    C'IFDOLT08 06 JUN 76'                             0003  00240000
         ST    @E,12(0,@D)                                        0003  00250000
         STM   @0,@C,20(@D)                                       0003  00260000
         BALR  @B,0                                               0003  00270000
@PSTART  DS    0H                                                 0003  00280000
         USING @PSTART+00000,@B                                   0003  00290000
         ST    @D,@SAV001+4                                       0003  00300000
         LA    @F,@SAV001                                         0003  00310000
         ST    @F,8(0,@D)                                         0003  00320000
         LR    @D,@F                                              0003  00330000
*   GEN(  USING CHASCT,2);               /* SET REG. 2 FOR DSECT      * 00340000
           USING CHASCT,2                                               00350000
         DS    0H                                                       00360000
*   GENERATE DATA;                                                      00370000
*         RESTRICT(2,3,5,6,7);           /* REGISTERS USED BY PROGRAM * 00380000
*         DCL R0 REG(0) PTR;                                            00390000
*         DCL R1 REG(1) PTR;             /* PARM LIST POINTER RECEIVED* 00400000
*         DCL R2 REG(2) PTR;             /* DSECT BASE REGISTER       * 00410000
*         DCL R3 REG(3) PTR;             /* ID AND ROUTINE NUMBER PTR * 00420000
*         DCL R4 REG(4) PTR;             /* CONTAIN SENSE COUNT       * 00430000
*         DCL R5 REG(5) PTR;             /* PRINT BUFFER POINTER      * 00440000
*         DCL R6 REG(6) PTR;             /* PARAMETER LIST POINTER    * 00450000
*         DCL R7 REG(7) PTR;                  /* WORK AREA POINTER    * 00460000
*         DCL R12 REG(12) PTR;                                          00470000
*         DCL R13 REG(13) PTR;           /* SAVE AREA POINTER         * 00480000
*         DCL R14 REG(14) PTR;                /* RETURN ADDR REGISTER * 00490000
*         DCL R15 REG(15) PTR;                /* RETURN CODE REGISTER * 00500000
*         DCL R9 REG(9) PTR;                  /* WORK REGISTER        * 00510000
*   GEN(EJECT);                                                         00520000
         EJECT                                                          00530000
         DS    0H                                                       00540000
*         /************************************************************ 00550000
*         /* THE FOLLOWING DEFINES AREAS REFERENCED EXTERNAL TO THIS  * 00560000
*         /* MODULE.                                                  * 00570000
*         /************************************************************ 00580000
*                                                                       00590000
*         DCL CESWT2 CHAR(1) GENERATED;  /* INTERNAL SWITCHES         * 00600000
*         DCL TAB28 PTR GENERATED;       /* LINK POINTER              * 00610000
*         DCL DEVDEPAD PTR GENERATED;         /* DEVICE ADDRESS       * 00620000
*         DCL CESWT CHAR(1) GENERATED;        /* FLAG AREA            * 00630000
*         DCL PRTBUFR CHAR(124) GENERATED;    /* PRINT BUFFER         * 00640000
*         DECLARE                                                       00650000
*             1 * BASED(ADDR(CESWT2)),                                  00660000
*               2 * BIT(2),                                             00670000
*               2 FECOND BIT(1);         /* FIRST ERROR CONDITION     * 00680000
*         DECLARE                                                       00690000
*             1 * BASED(ADDR(CESWT)),    /* FLAG AREA                 * 00700000
*               2 * BIT(6),              /* NOT REFERENCED            * 00710000
*               2 FERINT BIT(1);         /* FIRST ERROR SWITCH        * 00720000
*         DCL CESWT6 CHAR(1) GENERATED;  /*                      M4504* 00730000
*         DECLARE                                                       00740000
*             1 * BASED(DEVDEPAD),       /* DEVDEPAD POINTER TO AREA  * 00750000
*               2 * CHAR(6),             /* NOT REFERENCED            * 00760000
*               2 UNIT CHAR(2);          /* UNIT ADDRESS              * 00770000
*         DCL CHASCT CHAR(88) GENERATED; /* SECTION CONTROL TABLE     * 00780000
*         DECLARE                                                       00790000
*             1 * BASED(ADDR(CHASCT)),   /* SECTION CONTROL TABLE ADR.* 00800000
*               2 * CHAR(2),             /* NOT REFERENCED            * 00810000
*               2 * CHAR(1),                                            00820000
*                 3 * BIT(7),            /* NOT REFERENCED            * 00830000
*                 3 FERCOM BIT(1),       /* FIRST ERROR FLAG          * 00840000
*               2 CHASCT3 CHAR(1),       /* FIRST ERROR SWITCH        * 00850000
*                 3 CHASCTB BIT(1),                                     00860000
*                 3 * BIT(5),            /* NOT REFERENCED            * 00870000
*                 3 ERRLPB BIT(1);       /* ERROR LOOP FLAG           * 00880000
*         DCL COMMINT PTR GENERATED;     /* ADDRESS OF COMMUNICATIONS * 00890000
*         DECLARE                                                       00900000
*             1 BUFFERS BDY(DWORD),                                     00910000
*               2 * PTR,                 /* NOT USED                  * 00920000
*               2 FRMCON CHAR(1),        /* FORMS CONTROL CHARACTER   * 00930000
*               2 PRTBUFR1 CHAR(79),     /* BUFFER AREA               * 00940000
*               2 BUFFER2 CHAR(80);      /* BUFFER WORK AREA          * 00950000
*         DCL BUFR CHAR(79) BASED(R5);   /* BUFFER AREA               * 00960000
*  DCL CESWT5 CHAR(1) GENERATED;         /* OLTEP SWITCHES       M1390* 00970000
*  DCL 1 * BASED(ADDR(CESWT5)),          /* NA                   M1390* 00980000
*         2 * BIT(2),                    /* NA                   M1390* 00990000
*         2 FFEFLG BIT(1);               /* FIRST FIRST ERROR    M1390* 01000000
*   GEN(EJECT);                                                         01010000
         EJECT                                                          01020000
         DS    0H                                                       01030000
*         /************************************************************ 01040000
*         /* THE FOLLOWING MAP DESCRIBES THE PARAMETER LIST RECEIVED. * 01050000
*         /************************************************************ 01060000
*                                                                       01070000
*         DECLARE                                                       01080000
*             1 * BASED(R6),             /* REGISTER 6 CONTAINS THE   * 01090000
*               2 * CHAR(1),             /* ADDRESS OF THIS AREA.     * 01100000
*                 3 LASTFLG BIT(1),      /* LAST MESSAGE FLAG         * 01110000
*                 3 HEADFLG BIT(1),      /* HEADER REQUEST FLAG       * 01120000
*                 3 RSLTFLG BIT(1),      /* RESULT REQUEST FLAG       * 01130000
*                 3 OVRDFLG BIT(1),      /* OVER-RIDE REQUEST FLAG    * 01140000
*                 3 COMFLG BIT(1),       /* COMMENT REQUEST FLAG      * 01150000
*                 3 ERRFLG BIT(1),       /* ERROR MESSAGE FLAG        * 01160000
*                 3 * BIT(2),                                           01170000
*               2 FRMCNTL CHAR(1),       /* FORM CONTROL BYTE         * 01180000
*               2 * CHAR(1),                                            01190000
*               2 COUNT CHAR(1),         /* MESSAGE LENGTH            * 01200000
*               2 SUBCHK PTR;            /* POINTER TO SUBTASK OR     * 01210000
*                                        /* CHECKFIELDS               * 01220000
*   GEN(EJECT);                                                         01230000
         EJECT                                                          01240000
         DS    0H                                                       01250000
*         /************************************************************ 01260000
*         /* THE FOLLOWING MAP DESCRIBES THE SUBTASK AREA.            * 01270000
*         /************************************************************ 01280000
*                                                                       01290000
*         DECLARE                                                       01300000
*             1 * BASED(SUBCHK),         /* SUBCHK POINTS TO AREA.    * 01310000
*               2 * CHAR(1),             /* CONTAINS THE FOLLOWING    * 01320000
*                                        /* FLAGS:                    * 01330000
*                 3 DEVFLG BIT(1),       /* DEVICE INDICATOR          * 01340000
*                 3 LSTFLG BIT(1),       /* LAST PRINT INDICATOR      * 01350000
*                 3 * BIT(1),            /* NOT REFERENCED            * 01360000
*                 3 CCWFLG BIT(1),       /* CCW INDICATOR             * 01370000
*               2 LSTCCW CHAR(7);        /* CCW AREA                  * 01380000
*         DCL AREA CHAR(80) BASED(SUBCHK); /* COMMENT AREA            * 01390000
*   GEN(EJECT);                                                         01400000
         EJECT                                                          01410000
         DS    0H                                                       01420000
*         /************************************************************ 01430000
*         /* THE FOLLOWING MAP DESCRIBES THE CHECKFIELD AREA.         * 01440000
*         /************************************************************ 01450000
*                                                                       01460000
*         DECLARE                                                       01470000
*             1 * BASED(SUBCHK),                                        01480000
*               2 * CHAR(4),                                            01490000
*                 3 RELIF CHAR(1),       /* FLAG FIELDS INDICATING    * 01500000
*                                        /* AREAS TO BE PRINTED.      * 01510000
*                   4 RELAD BIT(1),      /* CSW COMMAND ADDRESS       * 01520000
*                   4 CC BIT(1),         /* CONDITION CODE            * 01530000
*                   4 CSWS1 BIT(1),      /* 1ST BYTE OF CSW STATUS    * 01540000
*                   4 CSWS2 BIT(1),      /* 2ND BYTE OF CSW STATUS    * 01550000
*                   4 CSWC BIT(1),       /* CSW COUNT                 * 01560000
*                   4 SNS BIT(1),        /* SENSE DATA                * 01570000
*                   4 * BIT(1),          /* NOT REFERENCED            * 01580000
*                   4 DATA BIT(1),       /* DATA FLAG                 * 01590000
*                 3 SNGLFLG BIT(1),      /* SINGLE LINE OF PRINT      * 01600000
*                 3 * BIT(7),            /* NOT USED                  * 01610000
*                 3 DTACNT CHAR(1),      /* DATA COUNT                * 01620000
*                 3 SCOUNT CHAR(1),      /* SENSE COUNT         Y02906* 01630000
*               2 TECBAD PTR,            /* TECB ADDRESS              * 01640000
*               2 EXPDINFO CHAR(16),     /* THIS FIELD CONTAINS       * 01650000
*                                        /* EXPECTED - CONDITION CODE * 01660000
*                                        /* CSW AND SENSE.            * 01670000
*               2 REDTADR PTR,           /* POINTER TO RECEIVED DATA  * 01680000
*               2 EXPDTADR PTR;          /* POINTER TO EXPECTED DATA  * 01690000
*         DCL RECEIV CHAR(256) BASED(REDTADR);  /* RECEIVED DATA AREA * 01700000
*         DCL EXPECT CHAR(256) BASED(EXPDTADR); /* EXPECTED DATA AREA * 01710000
*   GEN(EJECT);                                                         01720000
         EJECT                                                          01730000
         DS    0H                                                       01740000
*         /************************************************************ 01750000
*         /* THE FOLLOWING DEFINES INTERNAL WORK AREAS.               * 01760000
*         /************************************************************ 01770000
*                                                                       01780000
*         DCL WKARA1 CHAR(96);           /* WORK AREA                 * 01790000
*         DCL WKAREA CHAR(96) BASED(R7); /* REGISTER 7 POINTS TO AREA * 01800000
*         DECLARE                                                       01810000
*             1 * BASED(R13),            /* REG.13 POINTS TO SAVE AREA* 01820000
*               2 * PTR,                 /* NOT REFERENCED            * 01830000
*               2 OLTSVAD PTR;           /* POINTER TO OLT            * 01840000
*         DECLARE                                                       01850000
*             1 * BASED(OLTSVAD),                                       01860000
*               2 * CHAR(32),            /* NOT REFERENCED            * 01870000
*               2 IDAD PTR;              /* POINTER TO OLT ID         * 01880000
*         DECLARE                                                       01890000
*             1 * BASED(IDAD),                                          01900000
*               2 * CHAR(76),            /* NOT REFERENCED            * 01910000
*               2 ID CHAR(8),            /* OLT ID                    * 01920000
*               2 ROUTINE CHAR(1);       /* OLT ROUTINE NUMBER        * 01930000
*         DCL XLATE1 CHAR(10) INIT('0123456789');  /* TRANSLATE TABLE * 01940000
*   GEN(EJECT);                                                         01950000
         EJECT                                                          01960000
         DS    0H                                                       01970000
*         /************************************************************ 01980000
*         /* THE FOLLOWING MAPS DESCRIBE AREA'S REFERENCED FOR OPER-  * 01990000
*         /* ATOR COMMUNICATIONS                                      * 02000000
*         /************************************************************ 02010000
*                                                                       02020000
*         DCL IFDMSG08 EXT ENTRY;        /* IFDOLT08'S MESSAGE MODULE * 02030000
*         DCL MSGMOD08 PTR INIT(ADDR(IFDMSG08)); /* PTR. TO IFDMSG08  * 02040000
*         DECLARE                                                       02050000
*             1 * BASED(MSGMOD08),                                      02060000
*               2 MSG129 PTR;            /* ADDR OF MESSAGE IFD129I   * 02070000
*         DECLARE                                                       02080000
*             1 * BASED(MSG129),         /* MESSAGE IFD129I           * 02090000
*               2 * CHAR(39),            /* MESSAGE                   * 02100000
*               2 MSGID CHAR(6),         /* OLT ID                    * 02110000
*               2 * CHAR(1),             /* BLANK                     * 02120000
*               2 MSGRTN CHAR(2),        /* OLT ROUTINE NUMBER        * 02130000
*               2 * CHAR(6),             /* MESSAGE                   * 02140000
*               2 MSGUNIT CHAR(3);       /* UNIT ADDRESS              * 02150000
*   GEN(EJECT);                                                         02160000
         EJECT                                                          02170000
         DS    0H                                                       02180000
*         /************************************************************ 02190000
*         /* THE FOLLOWING MAP DESCRIBES THE TECB AREA                * 02200000
*         /************************************************************ 02210000
*                                                                       02220000
*         DECLARE                                                       02230000
*             1 * BASED(TECBAD),         /* TECB PTR IN CHECKFLD AREA * 02240000
*               2 * CHAR(4),             /* NOT REFERENCED            * 02250000
*               2 RCVDINFO CHAR(16);     /* THIS FIELD CONTAINS       * 02260000
*                                        /* RECEIVED - CONDITION CODE * 02270000
*                                        /* CSW AND SENSE.            * 02280000
*   GEN(EJECT);                                                         02290000
         EJECT                                                          02300000
         DS    0H                                                       02310000
*         /************************************************************ 02320000
*         /* THE FOLLOWING CODE WILL INITIALIZE REGISTERS AND DETER-  * 02330000
*         /* MINE THE FUNCTION OR FUNCTIONS TO BE PERFORMED.          * 02340000
*         /************************************************************ 02350000
*                                                                       02360000
*         R6 = R1;                       /* SET PARAMETER LIST PTR.   * 02370000
         LR    @6,@1                                              0061  02380000
* PRT000:                                                               02390000
*         R5 = ADDR(PRTBUFR1);           /* SET PRINT BUFFER PTR.     * 02400000
PRT000   LA    @5,BUFFERS+5                                       0062  02410000
*         R7 = ADDR(WKARA1);             /* SET WORK AREA PTR.        * 02420000
         LA    @7,WKARA1                                          0063  02430000
*          PRTBUFR(1:1)=' ';    /* CLEAR BUFFER               @ZA08978* 02440000
         MVI   PRTBUFR,C' '                                       0064  02450000
*          PRTBUFR(2:124)=PRTBUFR(1:123);                   /*@ZA08978* 02460000
         MVC   PRTBUFR+1(123),PRTBUFR                             0065  02470000
*          BUFFERS(1:1)=' ';    /* CLEAR BUFFERS              @ZA08978* 02480000
         MVI   BUFFERS,C' '                                       0066  02490000
*          BUFFERS(2:164)=BUFFERS(1:163);                   /*@ZA08978* 02500000
         MVC   BUFFERS+1(163),BUFFERS                             0067  02510000
*         IF FRMCNTL = 'D9'X THEN        /* FORMS CONTROL - RESTORE   * 02520000
         CLI   1(@6),X'D9'                                        0068  02530000
         BC    07,@9FF                                            0068  02540000
*           DO;                          /* DO THE FOLLOWING:         * 02550000
*           PRTBUFR(1:1) = '1B'X;        /* SET RESTORE CONTROL       * 02560000
         MVI   PRTBUFR,X'1B'                                      0070  02570000
*   GEN(  PWRT  SIZE=80);                /* INVOKE PRINT ROUTINE      * 02580000
           PWRT  SIZE=80                                                02590000
         DS    0H                                                       02600000
*           GO TO PRT0002;                                              02610000
         BC    15,PRT0002                                         0072  02620000
*           END;                         /* END OF RESTORE ROUTINE    * 02630000
*         IF FRMCNTL = 'F3'X THEN        /* FORMS CONTROL - SPACE 3   * 02640000
@9FF     CLI   1(@6),X'F3'                                        0074  02650000
         BC    07,@9FE                                            0074  02660000
*           DO;                          /* DO THE FOLLOWING:         * 02670000
*           FRMCON = '19'X;              /* SET SPACE 3 CONTROL       * 02680000
         MVI   BUFFERS+4,X'19'                                    0076  02690000
*           GO TO PRT0001;                                              02700000
         BC    15,PRT0001                                         0077  02710000
*           END;                         /* END OF SPACE 3 ROUTINE    * 02720000
*         IF FRMCNTL = 'F2'X THEN        /* FORMS CONTROL - SPACE 2   * 02730000
@9FE     CLI   1(@6),X'F2'                                        0079  02740000
         BC    07,@9FD                                            0079  02750000
*           DO;                          /* DO THE FOLLOWING:         * 02760000
*           FRMCON = '11'X;              /* SET SPACE 2 CONTROL       * 02770000
         MVI   BUFFERS+4,X'11'                                    0081  02780000
*           GO TO PRT0001;                                              02790000
         BC    15,PRT0001                                         0082  02800000
*           END;                         /* END OF SPACE 2 ROUTINE    * 02810000
* PRT0002:                                                              02820000
*         FRMCON = '09'X;                /* SET DEFAULT OF SPACE 1    * 02830000
@9FD     EQU   *                                                  0084  02840000
PRT0002  MVI   BUFFERS+4,X'09'                                    0084  02850000
* PRT0001:                                                              02860000
*         IF HEADFLG = '1'B THEN         /* REQUEST FOR HEADER PRINT  * 02870000
PRT0001  TM    0(@6),B'01000000'                                  0085  02880000
*           GO TO PRT003;                /* YES-GO TO HEADER ROUTINE  * 02890000
         BC    01,PRT003                                          0086  02900000
*         IF RSLTFLG = '1'B THEN         /* REQUEST FOR RESULT PRINT  * 02910000
         TM    0(@6),B'00100000'                                  0087  02920000
*           GO TO PRT010;                /* YES-GO TO RESULT ROUTINE  * 02930000
         BC    01,PRT010                                          0088  02940000
*         IF COMFLG = '1'B THEN          /* REQUEST FOR COMMENT PRINT * 02950000
         TM    0(@6),B'00001000'                                  0089  02960000
*           GO TO PRT022;                /* YES-GO TO COMMENT ROUTINE * 02970000
         BC    01,PRT022                                          0090  02980000
*         BUFR(2:4) = 'BUG';             /* NO- INDICATE ERROR        * 02990000
         MVC   1(3,@5),@C10                                       0091  03000000
*         PRTBUFR(1:80) = BUFFERS(5:84); /* SET PRINT BUFFER          * 03010000
         MVC   PRTBUFR(80),BUFFERS+4                              0092  03020000
*   GEN(  PWRT  SIZE=80);                /* INVOKE PRINT ROUTINE      * 03030000
           PWRT  SIZE=80                                                03040000
         DS    0H                                                       03050000
*                                                                       03060000
* PRT001:                                                               03070000
*  IF FFEFLG='1'B THEN                   /* CHECK SWITCH         M1390* 03080000
PRT001   TM    A00012,B'00100000'                                 0094  03090000
*    GOTO PRT002;                        /* PREVIOUS FIRST ERROR M1390* 03100000
         BC    01,PRT002                                          0095  03110000
*         IF FERCOM = '0'B THEN          /* 1ST ERROR COMMUNICATION   * 03120000
         TM    A00006+2,B'00000001'                               0096  03130000
*           GO TO PRT002;                /* GO CHECK ERROR LOOP       * 03140000
         BC    08,PRT002                                          0097  03150000
*         IF CHASCTB = '0'B THEN         /* FIRST ERROR COMMUNICATION * 03160000
         TM    A00006+3,B'10000000'                               0098  03170000
*           GO TO PRT002;                /* GO CHECK ERROR LOOP       * 03180000
         BC    08,PRT002                                          0099  03190000
* PRT001C:                                                              03200000
*         FERINT = '1'B;                 /* SET FIRST ERROR SWITCH    * 03210000
PRT001C  OI    A00002,B'00000010'                                 0100  03220000
*         MSGID = ID(1:6);               /* SET OLT ID IN MESSAGE     * 03230000
         L     @4,4(0,@D)                                         0101  03240000
         L     @4,32(0,@4)         A00027                         0101  03250000
         L     @C,MSGMOD08                                        0101  03260000
         L     @C,0(0,@C)          A00031                         0101  03270000
         MVC   39(6,@C),76(@4)                                    0101  03280000
*         R9 = ROUTINE;                  /* SETUP FOR TRANSLATE       * 03290000
         SR    @9,@9                                              0102  03300000
         IC    @9,84(0,@4)                                        0102  03310000
*   GENERATE;                                                           03320000
         CVD   R9,BUFFER2+4                                             03330000
         UNPK  BUFFER2(2),BUFFER2+10(2)                                 03340000
         NI    BUFFER2+1,X'0F'                                          03350000
         TR    BUFFER2+1(1),XLATE1                                      03360000
         DS    0H                                                       03370000
*         MSGRTN = BUFFER2(1:2);         /* SET OLT ROUTINE IN MESSAGE* 03380000
         MVC   46(2,@C),BUFFERS+84                                0104  03390000
*         BUFFER2(9:10) = UNIT;          /* SET UNIT ADDRESS IN BUFFER* 03400000
         L     @8,DEVDEPAD                                        0105  03410000
         MVC   BUFFERS+92(2),6(@8)                                0105  03420000
*         R9 = ADDR(LINK1);              /* SET LINK ADDRESS POINTER  * 03430000
         LA    @9,LINK1                                           0106  03440000
*         GO TO CONVERT1;                /* GO TO CONVERT ROUTINE     * 03450000
         BC    15,CONVERT1                                        0107  03460000
* LINK1:                                                                03470000
*         MSGUNIT = BUFFER2(28:30);      /* SET UNIT ADDRESS IN MSG.  * 03480000
LINK1    L     @4,MSGMOD08                                        0108  03490000
         L     @4,0(0,@4)          A00031                         0108  03500000
         MVC   54(3,@4),BUFFERS+111                               0108  03510000
*         R9 = MSG129;                   /* SET MESSAGE POINTER       * 03520000
         L     @C,MSGMOD08                                        0109  03530000
         L     @9,0(0,@C)                                         0109  03540000
*   GEN(  PWTO  REG=(R9));               /* INVOKE PARALLEL PRINT RTN * 03550000
           PWTO  REG=(R9)                                               03560000
         DS    0H                                                       03570000
*  FFEFLG='1'B;                          /* FIRST FIRST ERROR    M1390* 03580000
         OI    A00012,B'00100000'                                 0111  03590000
* PRT001B:                                                              03600000
*         FECOND = '1'B;                 /* SET FIRST ERROR CONDITION * 03610000
PRT001B  OI    A00000,B'00100000'                                 0112  03620000
*  CESWT6=CESWT6&'7F'X;                  /* CLEAR 1ST BIT IN SW  M4504* 03630000
         NI    CESWT6,X'7F'                                       0113  03640000
*         R15 = TAB28;                   /* SET LINK POINTER          * 03650000