         TITLE 'IFCETRN0 FOR EREP SUPPORT OF 3705/27RN'                 00100001
*  DSGEN MACRO     DSGEN MACRO     DSGEN MACRO     DSGEN MACRO        * 00200001
         SPACE 2                                                        00300001
*  DSGEN MACRO     DSGEN MACRO     DSGEN MACRO     DSGEN MACRO        * 00400001
         SPACE 2                                                        00500001
         MACRO                                                          00600001
&NAME    DSGEN                                                          00700001
.*                            THIS MACRO GENERATES ONE DSECT WORD       00800001
.*                                 FORMATTED FOR THE SUBJECT LOG RECORD 00900001
.*                                 EACH OPERAND HAS TWO SUB LISTS. THE  01000001
.*                                 FIRST IS THE NAME OF THE LOG ITEM    01100001
.*                                 WHILE THE SECOND IS THE # OF BITS TO 01200001
.*                                 ALLOCATE FOR THIS ITEM. ITEMS MUST   01300001
.*                                 BE DEFINED CONTIGUOUSLY WITHOUT GAPS 01400001
.*                                 UNUSED BIT GROUPS MUST BE GIVEN      01500001
.*                                 DUMMY NAMES. THE NAMES PROVIDED FOR  01600001
.*                                 THE LOG ITEMS MAY THEN BE USED IN    01700001
.*                                 THE CONVERSION MACRO INSTRUCTIONS.   01800001
         GBLC &ITEM(1000)                                               01900001
         GBLA &ITEMNBR,&BITS(1000),&SHIFT(1000)                         02000001
         LCLB  &ONLY1,&CTIND                                            02100001
         LCLA  &START1,&START2,&END1,&END2                              02200001
         LCLC  &SYMBOL,&EQUSYM                                          02300001
         LCLA  &OP,&COUNT,&BYTE,&EQUCNT                                 02400001
         ACTR  100000                                                   02500001
.START   AIF   (N'&SYSLIST(&OP+1) LT 3).LOOP                            02600001
         AIF   ('&SYSLIST(&OP+1,3)' EQ 'EQU').LOOP     TEST FOR EQU     02700001
  AIF   ('&SYSLIST(&OP+1,3)' EQ '' OR '&SYSLIST(&OP+1,4)' EQ '').ERR1   02800001
         AIF   ('&SYSLIST(&OP+1,3)' GT '&SYSLIST(&OP+1,4)').ERR3        02900001
&START1  SETA  &SYSLIST(&OP+1,3)        GET START COUNT OF 1            03000001
&START2  SETA  &SYSLIST(&OP+1,4)        GET FIRST END COUNT             03100001
         AGO   .SET2A                   BRANCH AROUND                   03200001
.ERR1    MNOTE '**FIRST SYMBOL CONCATENATION INCOMPLETE**'              03300001
         MEXIT                                                          03400001
.SET2A   AIF   ('&SYSLIST(&OP+1,5)' EQ ''AND '&SYSLIST(&OP+1,6)' EQ '' X03500001
               ).SET2                   TEST FOR NO SECOND              03600001
  AIF   ('&SYSLIST(&OP+1,5)' EQ '' OR '&SYSLIST(&OP+1,6)' EQ '').ERR2   03700001
         AIF   ('&SYSLIST(&OP+1,5)' GT '&SYSLIST(&OP+1,6)').ERR3        03800001
&END1    SETA  &SYSLIST(&OP+1,5)        GET START COUNT OF 2            03900001
&END2    SETA  &SYSLIST(&OP+1,6)        GET END COUNT OF 2              04000001
         AGO   .LOOP                                                    04100001
.SET2    ANOP                                                           04200001
&ONLY1   SETB  1                        INDICATE ONLY ONE CONCATENATION 04300001
         AGO   .LOOP                                                    04400001
.ERR2    MNOTE '**SECOND SYMBOL CONCATENATION INCOMPLETE**'             04500001
         MEXIT                                                          04600001
.ERR3    MNOTE '**START GREATER THAN END CONCATENATION**'               04700001
         MEXIT                                                          04800001
.LOOP    ANOP                                                           04900001
&OP      SETA  &OP+1                                                    05000001
         AIF   (&OP GT N'&SYSLIST).DONE      TEST IF ALL DONE           05100001
&ITEMNBR SETA  &ITEMNBR+1                                               05200001
         AIF   ('&SYSLIST(&OP,2)' NE '').OK1                            05300001
         MNOTE '**NULL BIT COUNT FIELD**'                               05400001
         MEXIT                                                          05500001
.OK1     ANOP                                                           05600001
&SYMBOL  SETC  '&SYSLIST(&OP,1)'                                        05700001
         AIF   ('&SYMBOL' NE '').OK                                     05800001
*              *****     LOG ITEM SYMBOL NOT PROVIDED     *****         05900001
         AIF   ('&SYSLIST(&OP,3)' NE 'EQU').CNT                         06000001
         AGO   .START                   GET NEXT                        06100001
.OK      AIF   (N'&SYSLIST(&OP) LT 3).NO3    TEST FOR OLD FORMAT        06200001
         AIF   ('&SYSLIST(&OP,3)' EQ 'EQU').EQU   TEST FOR EQU          06300001
         AIF   (&ONLY1).OK2             TEST FOR ONLY ONE CONCAT        06400001
&SYMBOL  SETC  '&SYMBOL.&START1.&END1'       GET 1 AND 2 CONCAT         06500001
         AGO   .NO3                     BRANCH AROUND                   06600001
.OK2     ANOP                                                           06700001
&SYMBOL  SETC  '&SYMBOL.&START1'        GET 1 CONCATENATED              06800001
.NO3     ANOP                                                           06900001
&SYMBOL  EQU   *+&BYTE                                                  07000001
&ITEM(&ITEMNBR) SETC '&SYMBOL'          GET LABEL IN GLOBAL             07100001
&BITS(&ITEMNBR) SETA &SYSLIST(&OP,2)                                    07200001
&SHIFT(&ITEMNBR) SETA &COUNT-&BYTE*8                                    07300001
.CNT     ANOP                                                           07400001
&CTIND   SETB  1                        SET COUNT INDICATOR             07500001
&COUNT   SETA  &COUNT+&SYSLIST(&OP,2)                                   07600001
&BYTE    SETA  &COUNT/8                                                 07700001
         AIF   (N'&SYSLIST(&OP) LT 3).START  TEST FOR OLD FORMAT        07800001
         AIF   (&ONLY1).TSTST           TEST FOR ONLY ONE CONCAT        07900001
         AIF   (&END1 EQ &END2).TSTST   TEST FOR SECOND END             08000001
&END1    SETA  &END1+1                  INCREMENT COUNT                 08100001
&OP      SETA  &OP-1                    DECREMENT INCREMENT             08200001
         AGO   .LOOP                    GENERATE NEXT                   08300001
.TSTST   ANOP                                                           08400001
         AIF   (&START1 EQ &START2).LPDONE   TEST FOR END               08500001
         AIF   (&ONLY1).NSET1           TEST FOR ONLY ONE CONCAT        08600001
&END1    SETA  &SYSLIST(&OP,5)          RE-INIT SECOND START COUNT      08700001
.NSET1   ANOP                                                           08800001
&OP      SETA  &OP-1                    DECREMENT INDEX                 08900001
&START1  SETA  &START1+1                INCREMENT FIRST COUNT           09000001
         AGO   .LOOP                    GO DO NEXT                      09100001
.LPDONE  ANOP                                                           09200001
&ONLY1   SETB  0                        CLEAR INDICATOR                 09300001
         AGO   .START                   GO TEST FOR MORE SUB-LISTS      09400001
.DONE    AIF   (&COUNT-&COUNT/8*8 NE 0).ERR  TEST FOR MULTIPLE OF EIGHT 09500001
         AIF   (&CTIND EQ 0).END        NO DS IF NO COUNT               09600001
&COUNT   SETA  &COUNT/8                 GET NUMBER OF BYTES             09700001
&NAME    DS    &COUNT.C                                                 09800001
.END     MEXIT                                                          09900001
.ERR     MNOTE '**BIT COUNT FLDS DO NOT TOTAL MULTIPLE OF 8**'          10000001
         MEXIT                                                          10100001
.EQU     AIF   ('&SYSLIST(&OP,4)' NE '').EQU1     TEST FOR NULL LABEL   10200001
.ERR4    MNOTE '**EQU OPERAND OMITTED OR NOT FOUND**'                   10300001
         MEXIT                                                          10400001
.EQU1    AIF   (&SYSLIST(&OP,2) LT 16).EQU2  COUNT OVER FIFTEEN         10500001
*****               THE FOLLOWING STATEMENT                *****        10600001
*****     NUMBER OF BITS EXCEED 15 - DO NOT USE AS BIN     *****        10700001
.EQU2    ANOP                                                           10800001
&EQUCNT  SETA  0                        CLEAR COUNTER                   10900001
&EQUSYM  SETC  '&SYSLIST(&OP,4)'        GET EQU OPERAND                 11000001
.EQULOP  ANOP                                                           11100001
&EQUCNT  SETA  &EQUCNT+1                INCREMENT INDEX                 11200001
         AIF   ('&ITEM(&EQUCNT)' EQ '&EQUSYM').EQUOUT  LABEL FOUND?     11300001
         AIF   (&EQUCNT EQ &ITEMNBR).ERR4    ALL TESTED?                11400001
         AGO   .EQULOP                  NO-GET NEXT                     11500001
.EQUOUT  ANOP                                                           11600001
&ITEM(&ITEMNBR) SETC '&SYMBOL'          GET LABEL NAME                  11700001
&BITS(&ITEMNBR) SETA &SYSLIST(&OP,2)    GET NUMBER OF BITS              11800001
&SHIFT(&ITEMNBR) SETA &SHIFT(&EQUCNT)   GET SHIFT COUNT                 11900001
&SYMBOL  EQU   &EQUSYM                  THIS SYMBOL EQUATED             12000001
         AGO   .START                   RETURN FOR NEXT                 12100001
         MEND                                                           12200001
         EJECT                                                          12300001
         MACRO                                                          12400001
         LINEND                                                         12500001
.*                            THIS MACRO IS USED ONLY BY THE LINE       12600001
.*                                 MACRO TO SET THE NUMBER OF ENTRIES   12700001
.*                                 ASSOCIATED WITH EACH LINE.           12800001
         GBLA  &NRENTS                                                  12900001
         GBLC &NRENTSX                                                  13000001
         AIF   (&NRENTS EQ 0).NORENTS   TEST FOR NO COUNT               13100001
         ORG   &NRENTSX                                                 13200001
         DC    FL1'&NRENTS'                                             13300001
         ORG                                                            13400001
&NRENTS  SETA  0                                                        13500001
.NORENTS ANOP                                                           13600001
B&SYSNDX EQU   *                                                        13700001
&NRENTSX SETC  'B&SYSNDX'                                               13800001
         MEND                                                           13900001
         EJECT                                                          14000001
         MACRO                                                          14100001
         BIN                                                            14200001
.*                                 &SYSLIST(&OP,1) - NAME OF LOG ITEM   14300001
.*                                      RECORD DSECT                    14400001
.*                                 $SYSLIST(&OP,2) - NBR OF SPACES      14500001
.*                                      TO SKIP ON MULTIPLE             14600001
.*                                      PRINT OR NBR OF SPACES          14700001
.*                                      TO BACK UP FROM COLUMN FOR      14800001
.*                                      START OF PRINTING. THE LETTER   14900001
.*                                      B PRECEEDS THE NUMBER (B5) IF   15000001
.*                                      THE LATTER IS DESIRED. OMISSION 15100001
.*                                      OF THIS OPERAND FORCES OPTION 2 15200001
.*                                      WITH BACKUP SPACING EQUAL TO    15300001
.*                                 THE NUMBER OF BITS IN THE ITEM       15400001
.*                                 DEFINITION (VIA MACRO 'DSGEN').      15500001
.*                            A LIMIT OF 15 BITS IS IMPOSED FOR THE     15600001
.*                                 TOTAL NUMBER OF BITS TO PRINT.       15700001
         GBLA  &INITIAL                                                 15800001
         GBLB  &DIAGTST,&DIAGSET,&DIAGLIN                               15900001
         GBLC &ITEM(1000)                                               16000001
         GBLA &ITEMNBR,&BITS(1000),&SHIFT(1000),&NRENTS                 16100001
         GBLC  &DSECT                                                   16200001
         LCLB  &B,&SUB                                                  16300001
         LCLA  &IBITS,&NDX,&ISHIFT,&K                                   16400001
         LCLA  &TEMP,&T,&OP                                             16500001
         LCLC  &S                                                       16600001
         AIF   (&DIAGTST EQ 0).NOMSG                                    16700001
         AIF   (&INITIAL EQ 0).NOMSG                                    16800001
         AIF   (&DIAGLIN EQ 1).NOMSG                                    16900001
         MNOTE '**NO LINE ASSOCIATED WITH THIS DATA**'                  17000001
*****THE FOLLOWING GENERATED FOR TEST PURPOSES*****                     17100001
*        LINE                                                           17200001
         LINE                                                           17300001
.NOMSG   ANOP                                                           17400001
         AIF   (K'&SYSLIST(1) EQ K'&SYSLIST(1,1)).LOOP                  17500001
&SUB     SETB  1                                                        17600001
.LOOP    ANOP                                                           17700001
&OP      SETA  &OP+1                                                    17800001
.LOOP1   ANOP                                                           17900001
&NDX     SETA  &NDX+1                                                   18000001
         AIF   ('&ITEM(&NDX)' EQ '&SYSLIST(&OP,1)').FOUND               18100001
         AIF   (&NDX LT &ITEMNBR).LOOP1                                 18200001
         MNOTE '**LOG ITEM NOT DEFINED**'                               18300001
         MEXIT                                                          18400001
.FOUND   ANOP                                                           18500001
&ISHIFT  SETA  &SHIFT(&NDX)                                             18600001
&IBITS   SETA  &BITS(&NDX)                                              18700001
&T       SETA  &IBITS-1                                                 18800001
&B       SETB  0                                                        18900001
         AIF   (&IBITS GT 0 AND &IBITS LT 16).SUB0                      19000001
         MNOTE '**NO. OF BITS OUTSIDE RANGE OF 1-15**'                  19100001
         MEXIT                                                          19200001
.SUB0    AIF   (&SUB EQ 1).SUBA                                         19300001
         AIF   ('&SYSLIST(2)' EQ '').BACKUP                             19400001
&K       SETA  K'&SYSLIST(2)                                            19500001
&B       SETB  ('&SYSLIST(2)'(1,1) EQ 'B')                              19600001
&S       SETC  '&SYSLIST(2)'(&B+1,&K-&B)                                19700001
         AGO   .SUBB                                                    19800001
.SUBA    ANOP                                                           19900001
         AIF   ('&SYSLIST(&OP,2)' EQ '').BACKUP                         20000001
&K       SETA  K'&SYSLIST(&OP,2)                                        20100001
&B       SETB  ('&SYSLIST(&OP,2)'(1,1) EQ 'B')                          20200001
&S       SETC  '&SYSLIST(&OP,2)'(&B+1,&K-&B)                            20300001
.SUBB    ANOP                                                           20400001
&T       SETA  &S                                                       20500001
.BACKUP  ANOP                                                           20600001
&NRENTS  SETA  &NRENTS+1                                                20700001
&TEMP    SETA  &ISHIFT                                                  20800001
         AIF   (&IBITS NE 1 OR &B NE 0).BIN2                            20900001
         DC    AL.12(&SYSLIST(&OP,1)-&DSECT),XL.4'&TEMP'                21000001
         AGO   .OUT                                                     21100001
.BIN2    AIF   ('&SYSLIST(&OP,2)' NE '').BIN3                           21200001
&B       SETB  1                                                        21300001
.BIN3    ANOP                                                           21400001
         DC    AL.12(&SYSLIST(&OP,1)-&DSECT),XL.4'C'                    21500001
         DC    BL.1'&B',AL.7(&T),AL.4(&IBITS),FL.4'&ISHIFT'             21600001
.OUT     ANOP                                                           21700001
&NDX     SETA  0                                                        21800001
         AIF   (&SUB EQ 0).OUTA                                         21900001
         AIF   (&OP LT N'&SYSLIST).LOOP                                 22000001
.OUTA    ANOP                                                           22100001
         MEND                                                           22200001
         EJECT                                                          22300001
         MACRO                                                          22400001
         LSTART                                                         22500001
.*                            THIS MACRO IS ISSUED WHEN THE LABEL AREA  22600001
.*                                 OF THE TABLE IS TO BEGIN.            22700001
         GBLA  &LABELNR                                                 22800001
         GBLC  &LBL(100)                                                22900001
         GBLC &LABELS(2000)                                             23000001
         GBLA  &LBLCTR(100)                                             23100001
         GBLB  &DIAGTST,&DIAGSET,&DIAGLIN                               23200001
         LCLA  &NDX,&CTR                                                23300001
         AIF   (&DIAGTST EQ 0).NODIAG                                   23400001
         AIF   (&DIAGSET EQ 0).NODIAG                                   23500001
         MNOTE '**NO LABEL ASSOCIATED WITH LAST SET**'                  23600001
***** THE FOLLOWING GENERATED FOR TEST PURPOSES *****                   23700001
*        LABEL '%%%%%%%%%%%%%%%%%%%%%%%%%%%%%%%%%%%%%%%%%%%%%%%%'       23800001
               LABEL '%%%%%%%%%%%%%%%%%%%%%%%%%%%%%%%%%%%%%%%%%%%%%%%%' 23900001
.NODIAG  ANOP                                                           24000001
         LINEND                                                         24100001
&CTR     SETA  1                                                        24200001
.LOOP    ANOP                                                           24300001
&NDX     SETA  &NDX+1                                                   24400001
         AIF   (&LBLCTR(&CTR) NE &NDX).NOLBL                            24500001
&LBL(&CTR) DC  C'&LABELS(&NDX)'                                         24600001
&CTR     SETA  &CTR+1                                                   24700001
         AGO   .LOOPCTL                                                 24800001
.NOLBL   ANOP                                                           24900001
         DC    C'&LABELS(&NDX)'                                         25000001
.LOOPCTL AIF   (&NDX LT &LABELNR).LOOP                                  25100001
         MEND                                                           25200001
         EJECT                                                          25300001
         MACRO                                                          25400001
&NAME    ROUTINE &LOGITEM,&RNAME                                        25500001
         GBLA  &NRENTS                                                  25600001
         GBLC  &DSECT,&CSECT                                            25700001
         GBLA  &INITIAL                                                 25800001
         GBLB  &DIAGTST,&DIAGSET,&DIAGLIN                               25900001
         AIF   (&DIAGTST EQ 0).NOMSG                                    26000001
         AIF   (&INITIAL EQ 0).NOMSG                                    26100001
         AIF   (&DIAGLIN EQ 1).NOMSG                                    26200001
         MNOTE '**NO LINE ASSOCIATED WITH THIS ROUTINE**'               26300001
*****THE FOLLOWING GENERATED FOR TEST PURPOSES*****                     26400001
*        LINE                                                           26500001
         LINE                                                           26600001
.NOMSG   ANOP                                                           26700001
&NAME    DC    AL.12(&LOGITEM-&DSECT),XL.4'D'                           26800001
         DC    AL2(&RNAME-&CSECT)                                       26900001
&NRENTS  SETA  &NRENTS+1                                                27000001
         MEND                                                           27100001
         EJECT                                                          27200001
         MACRO                                                          27300001
&NAME    LINE  &DATA,&LABEL,&SKIP=                                      27400001
.*                            THIS MACRO ESTABLISHES THE MARGINS OR     27500001
.*                                 COLUMN SETTINGS FOR EACH LINE. IT    27600001
.*                                 GENERATES NECESSARY CARRIAGE CONTROL 27700001
.*                                 ENTRIES. LASTLY IT DETERMINES THE    27800001
.*                                 NUMBER OF ENTRIES ASSOCIATED WITH    27900001
.*                                 THE PREVIOUS LINE AND STORES THAT #  28000001
.*                                 INTO THE APPROPRIATE BYTE.           28100001
.*                            &DATA(1) - CHARACTER POSITION TO BEGIN    28200001
.*                                 DATA.                                28300001
.*                            &DATA(2) - # OF SPACES BETWEEN SUCCESSIVE 28400001
.*                                 DATA COLUMN STARTING CHARACTERS.     28500001
.*                            &LABEL(1) - CHAR. POS. TO BEGIN LABELS.   28600001
.*                            &LABEL(2) - # SPACES BETWEEN LINE'S LABEL 28700001
.*                                 STARTING CHARACTERS.                 28800001
.*                            &SKIP= - # OF LINES TO ADVANCE CARRIAGE   28900001
.*                                 TO BEGIN NEXT PRINTED LINE.          29000001
.*                            NEW ENTRIES ARE GENERATED ONLY WHEN       29100001
.*                                 NECESSARY. OMISSION OF ITEMS MEANS   29200001
.*                                 THEY HAVE NOT CHANGED SINCE PREVIOUS 29300001
.*                                 SETTINGS. A LINE MACRO IS REQUIRED   29400001
.*                                 FOR EACH PRINTED LINE. IF NO SETTING 29500001
.*                                 CHANGES ARE REQUIRED ALL OPERANDS    29600001
.*                                 ARE OMITTED IN WHICH CASE ONLY THE   29700001
.*                                 # OF ENTRIES FOR THE PREVIOUS LINE   29800001
.*                                 IS COMPUTED. THIS MACRO MUST BE THE  29900001
.*                                 FIRST MACRO INSTRUCTION ISSUED FOR   30000001
.*                                 THE SUBJECT LINE                     30100001
         GBLA  &DB,&DT,&LB,&LT,&NRENTS                                  30200001
         GBLA  &LASTCC,&INITIAL                                         30300001
         GBLC  &NRENTSX                                                 30400001
         GBLC  &CARRCON                                                 30500001
         GBLB  &TEST                                                    30600001
         GBLB  &DIAGTST,&DIAGSET,&DIAGLIN                               30700001
         LCLA  &S                                                       30800001
         AIF   (&INITIAL EQ 0 OR &DIAGTST EQ 0).DIAGSET                 30900001
         AIF   (&DIAGSET EQ 0).DIAGSET                                  31000001
         MNOTE '**NO LABEL ASSOCIATED WITH LAST SET**'                  31100001
***** THE FOLLOWING GENERATED FOR TEST PURPOSES *****                   31200001
*        LABEL '%%%%%%%%%%%%%%%%%%%%%%%%%%%%%%%%%%%%%%%%%%%%%%%%'       31300001
               LABEL '%%%%%%%%%%%%%%%%%%%%%%%%%%%%%%%%%%%%%%%%%%%%%%%%' 31400001
.DIAGSET ANOP                                                           31500001
&DIAGSET SETB  1                                                        31600001
&DIAGLIN SETB  1                                                        31700001
&NAME    DS    0C                                                       31800001
         AIF   (&INITIAL EQ 0).FIRSTLN                                  31900001
         LINEND                                                         32000001
         AGO   .NTFIRST                                                 32100001
.FIRSTLN ANOP                                                           32200001
&NRENTSX SETC  'N&SYSNDX'                                               32300001
&INITIAL SETA  1                                                        32400001
N&SYSNDX EQU   *                                                        32500001
.NTFIRST ANOP                                                           32600001
         DC    AL1(0)                                                   32700001
         AIF   ('&DATA(1)' EQ '').CKDTABS                               32800001
         AIF   (&DATA(1) EQ &DB).CKDTABS                                32900001
&DB      SETA  &DATA(1)                                                 33000001
         AGO   .AA                                                      33100001
.CKDTABS AIF   ('&DATA(2)' EQ '').NCDATA                                33200001
         AIF   (&DATA(2) EQ &DT).NCDATA                                 33300001
         AGO   .CC                                                      33400001
.AA      AIF   ('&DATA(2)' EQ '').BB                                    33500001
         AIF   (&DATA(2) EQ &DT).BB                                     33600001
.CC      ANOP                                                           33700001
&DT      SETA  &DATA(2)                                                 33800001
.BB      DC    XL2'FFFE'                                                33900001
         DC    FL1'&DB'                                                 34000001
         DC    FL1'&DT'                                                 34100001
&NRENTS  SETA  &NRENTS+1                                                34200001
.NCDATA  ANOP                                                           34300001
         AIF   ('&LABEL(1)' EQ '').CKLTABS                              34400001
         AIF   (&LABEL(1) EQ &LB).CKLTABS                               34500001
&LB      SETA  &LABEL(1)                                                34600001
         AGO   .AAA                                                     34700001
.CKLTABS AIF   ('&LABEL(2)' EQ '').NCLABEL                              34800001
         AIF   (&LABEL(2) EQ &LT).NCLABEL                               34900001
         AGO   .CCC                                                     35000001
.AAA     AIF   ('&LABEL(2)' EQ '').BBB                                  35100001
         AIF   (&LABEL(2) EQ &LT).BBB                                   35200001
.CCC     ANOP                                                           35300001
&LT      SETA  &LABEL(2)                                                35400001
.BBB     DC    XL2'FFFF'                                                35500001
         DC    FL1'&LB'                                                 35600001
         DC    FL1'&LT'                                                 35700001
&NRENTS  SETA  &NRENTS+1                                                35800001
.NCLABEL ANOP                                                           35900001
         AIF   ('&SKIP' NE '').CONT                                     36000001
         AIF   (&TEST EQ 0).NOCHANG                                     36100001
         AGO   .DEFALTA                                                 36200001
.CONT    ANOP                                                           36300001
         AIF   (&TEST EQ 0).AB                                          36400001
         AIF   ('&SKIP' EQ 'E').AB                                      36500001