 TITLE 'IFCEM155 MODEL 155 OLYMPUS EDIT TABLE 2'                        00030002
         MACRO                                                          00060002
&NAME    LINE  &DATA,&LABEL,&SKIP=                                      00090002
.*                            THIS MACRO ESTABLISHES THE MARGINS OR     00120002
.*                                 COLUMN SETTINGS FOR EACH LINE. IT    00150002
.*                                 GENERATES NECESSARY CARRIAGE CONTROL 00180002
.*                                 ENTRIES. LASTLY IT DETERMINES THE    00210002
.*                                 NUMBER OF ENTRIES ASSOCIATED WITH    00240002
.*                                 THE PREVIOUS LINE AND STORES THAT #  00270002
.*                                 INTO THE APPROPRIATE BYTE.           00300002
.*                            &DATA(1) - CHARACTER POSITION TO BEGIN    00330002
.*                                 DATA.                                00360002
.*                            &DATA(2) - # OF SPACES BETWEEN SUCCESSIVE 00390002
.*                                 DATA COLUMN STARTING CHARACTERS.     00420002
.*                            &LABEL(1) - CHAR. POS. TO BEGIN LABELS.   00450002
.*                            &LABEL(2) - # SPACES BETWEEN LINE'S LABEL 00480002
.*                                 STARTING CHARACTERS.                 00510002
.*                            &SKIP= - # OF LINES TO ADVANCE CARRIAGE   00540002
.*                                 TO BEGIN NEXT PRINTED LINE.          00570002
.*                            NEW ENTRIES ARE GENERATED ONLY WHEN       00600002
.*                                 NECESSARY. OMISSION OF ITEMS MEANS   00630002
.*                                 THEY HAVE NOT CHANGED SINCE PREVIOUS 00660002
.*                                 SETTINGS. A LINE MACRO IS REQUIRED   00690002
.*                                 FOR EACH PRINTED LINE. IF NO SETTING 00720002
.*                                 CHANGES ARE REQUIRED ALL OPERANDS    00750002
.*                                 ARE OMITTED IN WHICH CASE ONLY THE   00780002
.*                                 # OF ENTRIES FOR THE PREVIOUS LINE   00810002
.*                                 IS COMPUTED. THIS MACRO MUST BE THE  00840002
.*                                 FIRST MACRO INSTRUCTION ISSUED FOR   00870002
.*                                 THE SUBJECT LINE                     00900002
         GBLA  &DB,&DT,&LB,&LT,&NRENTS                                  00930002
         GBLA  &LASTCC,&INITIAL                                         00960002
         GBLC  &NRENTSX                                                 00990002
         GBLC  &CARRCON                                                 01020002
         GBLB  &TEST                                                    01050002
         GBLB  &DIAGTST,&DIAGSET,&DIAGLIN                               01080002
         LCLA  &S                                                       01110002
         AIF   (&INITIAL EQ 0 OR &DIAGTST EQ 0).DIAGSET                 01140002
         AIF   (&DIAGSET EQ 0).DIAGSET                                  01170002
         MNOTE '**NO LABEL ASSOCIATED WITH LAST SET**'                  01200002
***** THE FOLLOWING GENERATED FOR TEST PURPOSES *****                   01230002
*        LABEL '%%%%%%%%%%%%%%%%%%%%%%%%%%%%%%%%%%%%%%%%%%%%%%%%'       01260002
               LABEL '%%%%%%%%%%%%%%%%%%%%%%%%%%%%%%%%%%%%%%%%%%%%%%%%' 01290002
.DIAGSET ANOP                                                           01320002
&DIAGSET SETB  1                                                        01350002
&DIAGLIN SETB  1                                                        01380002
&NAME    DS    0C                                                       01410002
         AIF   (&INITIAL EQ 0).FIRSTLN                                  01440002
         LINEND                                                         01470002
         AGO   .NTFIRST                                                 01500002
.FIRSTLN ANOP                                                           01530002
&NRENTSX SETC  'N&SYSNDX'                                               01560002
&INITIAL SETA  1                                                        01590002
N&SYSNDX EQU   *                                                        01620002
.NTFIRST ANOP                                                           01650002
         DC    AL1(0)                                                   01680002
         AIF   ('&DATA(1)' EQ '').CKDTABS                               01710002
         AIF   (&DATA(1) EQ &DB).CKDTABS                                01740002
&DB      SETA  &DATA(1)                                                 01770002
         AGO   .AA                                                      01800002
.CKDTABS AIF   ('&DATA(2)' EQ '').NCDATA                                01830002
         AIF   (&DATA(2) EQ &DT).NCDATA                                 01860002
         AGO   .CC                                                      01890002
.AA      AIF   ('&DATA(2)' EQ '').BB                                    01920002
         AIF   (&DATA(2) EQ &DT).BB                                     01950002
.CC      ANOP                                                           01980002
&DT      SETA  &DATA(2)                                                 02010002
.BB      DC    XL2'FFFE'                                                02040002
         DC    FL1'&DB'                                                 02070002
         DC    FL1'&DT'                                                 02100002
&NRENTS  SETA  &NRENTS+1                                                02130002
.NCDATA  ANOP                                                           02160002
         AIF   ('&LABEL(1)' EQ '').CKLTABS                              02190002
         AIF   (&LABEL(1) EQ &LB).CKLTABS                               02220002
&LB      SETA  &LABEL(1)                                                02250002
         AGO   .AAA                                                     02280002
.CKLTABS AIF   ('&LABEL(2)' EQ '').NCLABEL                              02310002
         AIF   (&LABEL(2) EQ &LT).NCLABEL                               02340002
         AGO   .CCC                                                     02370002
.AAA     AIF   ('&LABEL(2)' EQ '').BBB                                  02400002
         AIF   (&LABEL(2) EQ &LT).BBB                                   02430002
.CCC     ANOP                                                           02460002
&LT      SETA  &LABEL(2)                                                02490002
.BBB     DC    XL2'FFFF'                                                02520002
         DC    FL1'&LB'                                                 02550002
         DC    FL1'&LT'                                                 02580002
&NRENTS  SETA  &NRENTS+1                                                02610002
.NCLABEL ANOP                                                           02640002
         AIF   ('&SKIP' NE '').CONT                                     02670002
         AIF   (&TEST EQ 0).NOCHANG                                     02700002
         AGO   .DEFALTA                                                 02730002
.CONT    ANOP                                                           02760002
         AIF   (&TEST EQ 0).AB                                          02790002
         AIF   ('&SKIP' EQ 'E').AB                                      02820002
&S       SETA  &SKIP                                                    02850002
.DEFAULT ANOP                                                           02880002
         AIF   (&SKIP EQ &LASTCC).DEFALTA                               02910002
         ORG   &CARRCON+3                                               02940002
         DC    AL.3(0),AL.2(&S),AL.3(1)                                 02970002
         ORG                                                            03000002
&LASTCC  SETA  &S                                                       03030002
.DEFALTA ANOP                                                           03060002
&TEST    SETB  0                                                        03090002
         AGO   .DD                                                      03120002
.AB      AIF   ('&SKIP' NE 'E').ABB                                     03150002
A&SYSNDX DC    X'FFFB8B00'              EJECT                           03180002
         AGO   .ABC                                                     03210002
.ABB     AIF   (&SKIP EQ &LASTCC).NOCHANG                               03240002
A&SYSNDX DC    XL2'FFFB'                                                03270002
         DC    AL.3(0),AL.2(&SKIP),AL.3(1)                              03300002
         DC    AL.3(0),AL.2(&SKIP),AL.3(1)                              03330002
&LASTCC  SETA  &SKIP                                                    03360002
&TEST    SETB  1                                                        03390002
.ABC     ANOP                                                           03420002
&CARRCON SETC  'A&SYSNDX'                                               03450002
&NRENTS  SETA  &NRENTS+1                                                03480002
.DD      ANOP                                                           03510002
.NOCHANG ANOP                                                           03540002
         MEND                                                           03570002
*                                                                       03720002
*********************************************************************** 03750002
*                                                                       03780002
*                                                                       03810002
         MACRO                                                          03840002
&NAME    ROUTINE  &LOGITEM,&RNAME                                       03870002
         GBLC  &ITEM(3000)                                              03900002
         GBLA  &SHIFT(3000),&ITEMNBR                                    03930002
         GBLC  &DSECT,&CSECT                                            03960002
         GBLA  &NRENTS                                                  03990002
         LCLA  &ISHIFT,&NDX                                             04020002
.LOOP    ANOP                                                           04050002
&NDX     SETA  &NDX+1                                                   04080002
         AIF   ('&ITEM(&NDX)' EQ '&LOGITEM').FOUND                      04110002
         AIF   (&NDX LT &ITEMNBR).LOOP                                  04140002
         MNOTE 'LOG ITEM NOT DEFINED'                                   04170002
         MEXIT                                                          04200002
.FOUND   ANOP                                                           04230002
&ISHIFT  SETA  &SHIFT(&NDX)                                             04260002
&NAME    DC    AL.12(&LOGITEM-&DSECT),XL.4'D'                           04290002
         DC    AL.4(&ISHIFT),AL.12(&RNAME-&CSECT)                       04320002
&NRENTS  SETA  &NRENTS+1                                                04350002
         MEND                                                           04380002
*                                                                       04410002
*                                                                       04440002
*********************************************************************** 04470002
*                                                                       04500002
*                                                                       04530002
         MACRO                                                          04560002
&NAME    LABEL &LABEL1,&LABEL2,&LABEL3,&LABEL4,&LABEL5,&LABEL6,        C04580002
               &LABEL7,&LABEL8                                          04600002
.*                                 THIS MACRO ALLOWS LABELS TO          04620002
.*                                 BE SPECIFIED FOR A GIVEN LINE. THE   04640002
.*                                 LABELS SHOULD BE ENCLOSED IN QUOTA-  04660002
.*                                 TION MARKS. THE COLUMN AND LINE END  04680002
.*                                 CONTROLS WILL BE INSERTED BY THE     04700002
.*                                 MACRO. OMITTED OPERANDS MEAN NO      04720002
.*                                 LABEL REQUIRED FOR RESPECTIVE        04740002
.*                                 COLUMN.                              04760002
         GBLC &LABELS(3000)                                             04780002
         GBLC  &LBL(300)                                                04800002
         GBLA  &LBLCTR(300)                                             04820002
         GBLA  &LABELNR                                                 04840002
         GBLA  &NRENTS,&LPTR,&INITIAL                                   04860002
         GBLB  &DIAGTST,&DIAGSET,&DIAGLIN                               04880002
         LCLC  &MARGIN,&TACK                                            04900002
         LCLC  &TEXT                                                    04920002
         LCLA  &OP,&K,&START,&NRCHAR,&REMAIN                            04940002
         ACTR  500000                                                   04960002
         AIF   (&INITIAL EQ 0).DIAGCLR                                  04980002
         AIF   (&DIAGTST EQ 0).DIAGCLR                                  05000002
         AIF   (&DIAGLIN EQ 1).DIAGCLR                                  05020002
         MNOTE '**NO LINE ASSOCIATED WITH PREVIOUS LABEL**'             05040002
***** THE FOLLOWING GENERATED FOR TEST PURPOSES *****                   05060002
*        LINE                                                           05080002
         LINE                                                           05100002
.DIAGCLR ANOP                                                           05120002
&DIAGSET SETB  0                                                        05140002
&DIAGLIN SETB  0                                                        05160002
&MARGIN  SETC  '*'                                                      05180002
         AIF   ('&NAME' EQ '').LOOPOUT                                  05200002
&LPTR    SETA  &LPTR+1                                                  05220002
&LBL(&LPTR) SETC '&NAME'                                                05240002
&LBLCTR(&LPTR) SETA &LABELNR+1                                          05260002
.LOOPOUT ANOP                                                           05280002
&OP      SETA  &OP+1                                                    05300002
&K       SETA  K'&SYSLIST(&OP)                                          05320002
         AIF (&K GE 2).NORM                                             05340002
&K       SETA  2                                                        05360002
.NORM    ANOP                                                           05380002
&START   SETA  2                                                        05400002
         AIF (&OP LT N'&SYSLIST).NOTLAST                                05420002
&MARGIN  SETC  '$'                                                      05440002
.NOTLAST ANOP                                                           05460002
&NRCHAR  SETA  8                                                        05480002
&TACK    SETC  ''                                                       05500002
.LOOPIN  ANOP                                                           05520002
&REMAIN  SETA  &K-&START                                                05540002
         AIF (&REMAIN GE 8).MORE                                        05560002
&TACK    SETC  '&MARGIN'                                                05580002
&NRCHAR  SETA  &REMAIN                                                  05600002
.MORE    ANOP                                                           05620002
&TEXT    SETC  ''                                                       05640002
         AIF (&REMAIN EQ 0).ENDTEXT                                     05660002
&TEXT    SETC  '&SYSLIST(&OP)'(&START,&NRCHAR)                          05680002
.ENDTEXT ANOP                                                           05700002
&LABELNR SETA  &LABELNR+1                                               05720002
&LABELS(&LABELNR) SETC '&TEXT'.'&TACK'                                  05740002
&START   SETA  &START+8                                                 05760002
         AIF ('&TACK' EQ '').LOOPIN                                     05780002
         AIF ('&TACK' EQ '*').LOOPOUT                                   05800002
         MEND                                                           05820002
         SPACE 2                                                        06210002
         MACRO                                                          06240002
         LSTART                                                         06270002
.*                            THIS MACRO IS ISSUED WHEN THE LABEL AREA  06300002
.*                                 OF THE TABLE IS TO BEGIN.            06330002
         GBLC &LABELS(3000)                                             06360002
         GBLA  &LABELNR                                                 06390002
         GBLC  &LBL(300)                                                06420002
         GBLA  &LBLCTR(300)                                             06450002
         LCLA  &NDX,&CTR                                                06480002
         LINEND                                                         06510002
&CTR     SETA  1                                                        06540002
.LOOP    ANOP                                                           06570002
&NDX     SETA  &NDX+1                                                   06600002
         AIF   (&LBLCTR(&CTR) NE &NDX).NOLBL                            06630002
&LBL(&CTR) DC  C'&LABELS(&NDX)'                                         06660002
&CTR     SETA  &CTR+1                                                   06690002
         AGO   .LOOPCTL                                                 06720002
.NOLBL   ANOP                                                           06750002
         DC    C'&LABELS(&NDX)'                                         06780002
.LOOPCTL AIF   (&NDX LT &LABELNR).LOOP                                  06810002
         MEND                                                           06840002
*                                                                       06870002
*                                                                       06900002
*********************************************************************** 06930002
*                                                                       06960002
*                                                                       06990002
         MACRO                                                          07020002
         LINEND                                                         07050002
.*                                 THIS MACRO IS USED ONLY BY THE LINE  07080002
.*                                 MACRO TO SET THE NUMBER OF ENTRIES   07110002
.*                                 ASSOCIATED WITH EACH LINE.           07140002
         GBLA  &NRENTS                                                  07170002
         GBLC  &NRENTSX                                                 07200002
         ORG   &NRENTSX                                                 07230002
         DC    FL1'&NRENTS'                                             07260002
         ORG                                                            07290002
&NRENTS  SETA  0                                                        07320002
B&SYSNDX EQU   *                                                        07350002
&NRENTSX SETC  'B&SYSNDX'                                               07380002
         MEND                                                           07410002
*                                                                       07440002
*                                                                       07470002
*********************************************************************** 07500002
*                                                                       07530002
*                                                                       07560002
         MACRO                                                          07590002
&NAME    BIND  &Z1,&Z2,&Z3,&Z4                                          07620002
.*                                 THIS MACRO HELPS COLLOCATE BITS IN   07650002
.*                                 DIFFERENT AREAS OF THE LOG TO MAKE   07680002
.*                                 THEM ACCESSIBLE TO THE 'HEX' MACRO.  07710002
.*                                 EACH OPERAND HAS 3 SUBFIELDS:1 SPE-  07740002
.*                                 CIFIES BY LOGITEM NAME THE BYTE TO   07770002
.*                                 BE REFERENCED,2 GIVES THE NUMBER OF  07800002
.*                                 UNDESIRED BITS TO THE LEFT OF THE    07830002
.*                                 LOG ITEM'S FIRST BIT,3 GIVES THE LOG 07860002
.*                                ITEM'S LENGTH IN BITS. THE MACRO      07890002
.*                                CAUSES THE INFORMATION TO BE STORED & 07920002
.*                                CONTROL IS GIVEN TO THE 'BINDER' ROU- 07950002
.*                                TINE,WHICH STORES THE COLLOCATED      07980002
.*                                BITS RIGHT-JUSTIFIED IN THE FOUR-     08010002
.*                                BYTE WORK AREA INSERTED IN THE LOG,   08040002
.*                                BEGINNING AT 'LOGWORK1'               08070002
         GBLC      &DSECT                                               08100002
         LCLA  &OP                                                      08130002
         ACTR  500000                                                   08160002
&NAME    BC    15,BINDER                                                08190002
.LOOP    ANOP                                                           08220002
&OP      SETA  &OP+1                                                    08250002
         DC    AL.16(&SYSLIST(&OP,1)-&DSECT)                            08280002
         DC    FL1'&SYSLIST(&OP,2)'                                     08310002
         DC    FL1'&SYSLIST(&OP,3)'                                     08340002
         AIF   (&OP LT N'&SYSLIST).LOOP                                 08370002
         ORG   &NAME+4                                                  08400002
         DC    AL.4(&OP),AL.12(&SYSLIST(1,1)-&DSECT)                    08430002
         ORG                                                            08460002
         MEND                                                           08490002
         MACRO                                                          08520002
&NAME    CKPARITY  &PAR1,&PAR2,&PAR3,&PAR4,&PAR5,&PAR6                  08550002
.*                                THIS MACRO HELPS SET THE LOCATION     08580002
.*                                CONTROLS FOR A SPECIAL ROUTINE TO     08610002
.*                                CHECK PARITY ON ITEMS FROM THE LOG    08640002
.*                                ALREADY ASSEMBLED FOR PRINTING IN THE 08670002
.*                                PRINT BUFFER THAT HAS BEEN SET UP.    08700002
.*                                EACH OPERAND (UP TO SIX) HAS THREE    08730002
.*                                SUBFIELDS:1 GIVES THE DISPLACEMENT    08760002
.*                                FROM PRINT POSITION ZERO TO BEGIN     08790002
.*                                THE PARITY CHECK(I.E.,LOC. OF PARITY  08820002
.*                                BIT IN BUFFER);2 GIVES THE NUMBER OF  08850002
.*                                POSITIONS TO CHECK AGAINST THE PARITY 08880002
.*                                BIT (ASSUMING 1 SPACE BETWEEN PAR BIT 08910002
.*                                AND THE FIRST POSITION TO BE CHECKED) 08940002
.*                                3 GIVES THE NUMBER OF SEQUENTIAL PAR. 08970002
.*                                CHECKS OF THIS SORT TO MAKE,ASSUMING  09000002
.*                                TWO SPACES BETWEEN THE LAST POSITION  09030002
.*                                CHECKED AND NEXT PAR. BIT POSITION    09060002
         LCLA  &OP                                                      09090002
&NAME    BC    15,PARPUT                                                09120002
         DC    X'0'                                                     09150002
.LOOP    ANOP                                                           09180002
&OP      SETA  &OP+1                                                    09210002
         DC    FL1'&SYSLIST(&OP,1)'                                     09240002
         DC    FL1'&SYSLIST(&OP,2)'                                     09270002
         DC    FL1'&SYSLIST(&OP,3)'                                     09300002
         AIF   (&OP LT N'&SYSLIST).LOOP                                 09330002
         ORG   &NAME+4                                                  09360002
         DC    FL1'&OP'                                                 09390002
         ORG                                                            09420002
         MEND                                                           09450002
         MACRO                                                          09480002
         DSGENFET                                                       09510002
         DS    0F                                                       09540002
         DSGEN (XKEY,16),(XSWS0,8),(XSWS8,1),(XSWS9,1),                *09570002
               (XSWS10,1),(XSWS11,1),                                  *09600002
               (XSWS12,1),(XSWS13,1),(XSWS14,1),(XSWS15,1)              09630002
         DSGEN (LOGWORK1,8),(LOGWORK2,6),(LOGWORK3,2),(LOGWRK3A,4),    *09660002
               (LOGWRK3B,3),(LOGWRK3C,1),(LOGWORK4,8)                   09690002
         DSGEN (XDATE,32)                                               09720002
         DSGEN (XTIME,32)                                               09750002
         DSGEN (XDUM2,8),(XSER,24)                                      09780002
         DSGEN (XCPUMOD,16),(XDUM3,16)                                  09810002
         DSGEN (XPGMID,64)                                              09840002
         DSGEN (XJOBID,64)                                              09870002
         DSGEN (XMCKPSW,64)                                             09900002
         DSGEN (SYSDAM,1),(PROCD,1),(SYSREC,1),(TIMDAM,1),(CLOCKD,1),  X09930002
               (EXTDAM,1),(MDUM0,1),(AUTOCON,1),(WARNG,1),             X09960002
               (DUM,5),(BACKUP1,1),(DELAY,1),(UNSTOR,1),               *09990002
               (CORRST,1),(KEYERR,1),(DUMMY001,1),(EMWP,1),            *10020002
               (SYSMSK,1),(PGMSK,1),(IAVLD,1),(FASTVLD,1),             X10050002
               (RCVLD,1),(MDUM3,1),(FLPVLD,1),(GPRVLD,1),              X10080002
               (CTLVLD,1),(LOGVLD,1),(STVLD,1)                          10110002
         DS    276C                                                     10140002
         DSGEN (XBUS0,8),(XBUS1,8),(XBUS2,8),(XBUS3,8)                  12180002
         DSGEN (YBUS0,8),(YBUS1,8),(YBUS2,8),(YBUS3,8)                  12210002
         DSGEN (ZBUS0,8),(ZBUS1,8),(ZBUS2,8),(ZBUS3,8)                  12240002
         DSGEN (UBUS,8),(VBUS,8),(WBUS,8),(FILREG,8)                    12270002
         DSGEN (STLNK,1),(RABUSRP,1),(RABUSBI,1),(RABUS1P,1),          *12300002
               (RABUS1,4),(RABUS3,8),(BFRBUSY,1),(RBAR1RP,1),          *12330002
               (RBAR1BI,1),(RBAR11P,1),(RBAR11,4),(RBAR13,8)            12360002
         DSGEN (LSSSTS,2),(CPURLAR,6),(WRCPULS,1),(DUMMY000,1),        *12390002
               (CPUWLAR,6),(DUMMY002,1),(DUMMY003,1),(IORLAR,6),       *12420002
               (WRIOLS,1),(DUMMY004,1),(IOWLAR,6)                       12450002
         DSGEN (EXTSW0,8),(EXTSW1,8),(EXTSW2,8),(EXTSW3,8)              12480002
         DSGEN (SPARE030,8),(SPARE031,8),(SPARE032,8),(SPARE033,8)      12510002
         DSGEN (AREG0,8),(AREG1,8),(AREG2,8),(AREG3,8)                  12540002
         DSGEN (BREG0,8),(BREG1,8),(BREG2,8),(BREG3,8)                  12570002
         DSGEN (CREG0,8),(CREG1,8),(CREG2,8),(CREG3,8)                  12600002
         DSGEN (DREG0,8),(DREG1,8),(DREG2,8),(DREG3,8)                  12630002
         DSGEN (IOLSD0,8),(IOLSD1,8),(IOLSD2,8),(IOLSD3,8)              12660002
         DSGEN (CPULS0,8),(CPULS1,8),(CPULS2,8),(CPULS3,8)              12690002
         DSGEN (IOSAR0,8),(IOSAR1,8),(IOSAR2,8),(IOSAR3,8)              12720002
         DSGEN (CPUSR0,8),(CPUSR1,8),(CPUSR2,8),(CPUSR3,8)              12750002
         DSGEN (SPARE034,8),(IAR1,8),(IAR2,8),(IAR3,8)                  12780002
         DSGEN (PSWSM,8),(PSWKEY,8),(PSWESM,8),(CONSUM,1),     @YA02788X12810002