       TITLE   'IFCEF165 MODEL 165 CPU EDIT TABLE 4'                    00050002
*  DSGEN MACRO     DSGEN MACRO     DSGEN MACRO     DSGEN MACRO        * 00100002
         SPACE 2                                                        00150002
         MACRO                                                          00200002
&NAME    DSGEN ,                                                        00240002
.*                            THIS MACRO GENERATES ONE DSECT WORD       00280002
.*                                 FORMATTED FOR THE SUBJECT LOG RECORD 00320002
.*                                 EACH OPERAND HAS TWO SUB LISTS. THE  00360002
.*                                 FIRST IS THE NAME OF THE LOG ITEM    00400002
.*                                 WHILE THE SECOND IS THE # OF BITS TO 00440002
.*                                 ALLOCATE FOR THIS ITEM. ITEMS MUST   00480002
.*                                 BE DEFINED CONTIGUOUSLY WITHOUT GAPS 00520002
.*                                 UNUSED BIT GROUPS MUST BE GIVEN      00560002
.*                                 DUMMY NAMES. THE NAMES PROVIDED FOR  00600002
.*                                 THE LOG ITEMS MAY THEN BE USED IN    00640002
.*                                 THE CONVERSION MACRO INSTRUCTIONS.   00680002
         GBLC &ITEM(2000)                                      @YL02021 00720002
         GBLA &ITEMNBR,&BITS(2000),&SHIFT(2000)                @YL02021 00760002
         LCLB  &ONLY1,&CTIND                                   @YL02021 00800002
         LCLA  &START1,&START2,&END1,&END2                     @YL02021 00840002
         LCLC  &SYMBOL,&EQUSYM                                 @YL02021 00880002
         LCLA  &OP,&COUNT,&BYTE,&EQUCNT                        @YL02021 00920002
         ACTR  100000                                          @YL02021 00960002
.START   AIF   (N'&SYSLIST(&OP+1) LT 3).LOOP                   @YL02021 01000002
         AIF   ('&SYSLIST(&OP+1,3)' EQ 'EQU').LOOP     TEST FOR EQU     01040002
  AIF   ('&SYSLIST(&OP+1,3)' EQ '' OR '&SYSLIST(&OP+1,4)' EQ '').ERR1   01080002
         AIF   ('&SYSLIST(&OP+1,3)' GT '&SYSLIST(&OP+1,4)').ERR3        01120002
&START1  SETA  &SYSLIST(&OP+1,3)        GET START COUNT OF 1   @YL02021 01160002
&START2  SETA  &SYSLIST(&OP+1,4)        GET FIRST END COUNT    @YL02021 01200002
         AGO   .SET2A                   BRANCH AROUND          @YL02021 01240002
.ERR1    MNOTE '**FIRST SYMBOL CONCATENATION INCOMPLETE**'     @YL02021 01280002
         MEXIT                                                 @YL02021 01320002
.SET2A   AIF   ('&SYSLIST(&OP+1,5)' EQ ''AND '&SYSLIST(&OP+1,6)' EQ '' X01360002
               ).SET2                   TEST FOR NO SECOND     @YL02021 01400002
  AIF   ('&SYSLIST(&OP+1,5)' EQ '' OR '&SYSLIST(&OP+1,6)' EQ '').ERR2   01440002
         AIF   ('&SYSLIST(&OP+1,5)' GT '&SYSLIST(&OP+1,6)').ERR3        01480002
&END1    SETA  &SYSLIST(&OP+1,5)        GET START COUNT OF 2   @YL02021 01520002
&END2    SETA  &SYSLIST(&OP+1,6)        GET END COUNT OF 2     @YL02021 01560002
         AGO   .LOOP                                           @YL02021 01600002
.SET2    ANOP                                                  @YL02021 01640002
&ONLY1   SETB  1                        INDICATE ONLY ONE CONCATENATION 01680002
         AGO   .LOOP                                           @YL02021 01720002
.ERR2    MNOTE '**SECOND SYMBOL CONCATENATION INCOMPLETE**'    @YL02021 01760002
         MEXIT                                                 @YL02021 01800002
.ERR3    MNOTE '**START GREATER THAN END CONCATENATION**'      @YL02021 01840002
         MEXIT                                                 @YL02021 01880002
.LOOP    ANOP                                                  @YL02021 01920002
&OP      SETA  &OP+1                                           @YL02021 01960002
         AIF   (&OP GT N'&SYSLIST).DONE      TEST IF ALL DONE  @YL02021 02000002
&ITEMNBR SETA  &ITEMNBR+1                                      @YL02021 02040002
         AIF   ('&SYSLIST(&OP,2)' NE '').OK1                   @YL02021 02080002
         MNOTE '**NULL BIT COUNT FIELD**'                      @YL02021 02120002
         MEXIT                                                 @YL02021 02160002
.OK1     ANOP                                                  @YL02021 02200002
&SYMBOL  SETC  '&SYSLIST(&OP,1)'                               @YL02021 02240002
         AIF   ('&SYMBOL' NE '').OK                            @YL02021 02280002
*              *****     LOG ITEM SYMBOL NOT PROVIDED     *****         02320002
         AIF   ('&SYSLIST(&OP,3)' NE 'EQU').CNT                @YL02021 02360002
         AGO   .START                   GET NEXT               @YL02021 02400002
.OK      AIF   (N'&SYSLIST(&OP) LT 3).NO3    TEST FOR OLD FORMAT        02440002
         AIF   ('&SYSLIST(&OP,3)' EQ 'EQU').EQU   TEST FOR EQU @YL02021 02480002
         AIF   (&ONLY1).OK2             TEST FOR ONLY ONE CONCAT        02520002
&SYMBOL  SETC  '&SYMBOL.&START1.&END1'       GET 1 AND 2 CONCAT         02560002
         AGO   .NO3                     BRANCH AROUND          @YL02021 02600002
.OK2     ANOP                                                  @YL02021 02640002
&SYMBOL  SETC  '&SYMBOL.&START1'        GET 1 CONCATENATED     @YL02021 02680002
.NO3     ANOP                                                  @YL02021 02720002
&SYMBOL  EQU   *+&BYTE                                         @YL02021 02760002
&ITEM(&ITEMNBR) SETC '&SYMBOL'          GET LABEL IN GLOBAL    @YL02021 02800002
&BITS(&ITEMNBR) SETA &SYSLIST(&OP,2)                           @YL02021 02840002
&SHIFT(&ITEMNBR) SETA &COUNT-&BYTE*8                           @YL02021 02880002
.CNT     ANOP                                                  @YL02021 02920002
&CTIND   SETB  1                        SET COUNT INDICATOR    @YL02021 02960002
&COUNT   SETA  &COUNT+&SYSLIST(&OP,2)                          @YL02021 03000002
&BYTE    SETA  &COUNT/8                                        @YL02021 03040002
         AIF   (N'&SYSLIST(&OP) LT 3).START  TEST FOR OLD FORMAT        03080002
         AIF   (&ONLY1).TSTST           TEST FOR ONLY ONE CONCAT        03120002
         AIF   (&END1 EQ &END2).TSTST   TEST FOR SECOND END    @YL02021 03160002
&END1    SETA  &END1+1                  INCREMENT COUNT        @YL02021 03200002
&OP      SETA  &OP-1                    DECREMENT INCREMENT    @YL02021 03240002
         AGO   .LOOP                    GENERATE NEXT          @YL02021 03280002
.TSTST   ANOP                                                  @YL02021 03320002
         AIF   (&START1 EQ &START2).LPDONE   TEST FOR END      @YL02021 03360002
         AIF   (&ONLY1).NSET1           TEST FOR ONLY ONE CONCAT        03400002
&END1    SETA  &SYSLIST(&OP,5)          RE-INIT SECOND START COUNT      03440002
.NSET1   ANOP                                                  @YL02021 03480002
&OP      SETA  &OP-1                    DECREMENT INDEX        @YL02021 03520002
&START1  SETA  &START1+1                INCREMENT FIRST COUNT  @YL02021 03560002
         AGO   .LOOP                    GO DO NEXT             @YL02021 03600002
.LPDONE  ANOP                                                  @YL02021 03640002
&ONLY1   SETB  0                        CLEAR INDICATOR        @YL02021 03680002
         AGO   .START                   GO TEST FOR MORE SUB-LISTS      03720002
.DONE    AIF   (&COUNT-&COUNT/8*8 NE 0).ERR  TEST FOR MULTIPLE OF EIGHT 03760002
         AIF   (&CTIND EQ 0).END        NO DS IF NO COUNT      @YL02021 03800002
&COUNT   SETA  &COUNT/8                 GET NUMBER OF BYTES    @YL02021 03840002
&NAME    DS    &COUNT.C                                        @YL02021 03880002
.END     MEXIT                                                 @YL02021 03920002
.ERR     MNOTE '**BIT COUNT FLDS DO NOT TOTAL MULTIPLE OF 8**' @YL02021 03960002
         MEXIT                                                 @YL02021 04000002
.EQU     AIF   ('&SYSLIST(&OP,4)' NE '').EQU1     TEST FOR NULL LABEL   04040002
.ERR4    MNOTE '**EQU OPERAND OMITTED OR NOT FOUND**'          @YL02021 04080002
         MEXIT                                                 @YL02021 04120002
.EQU1    AIF   (&SYSLIST(&OP,2) LT 16).EQU2  COUNT OVER FIFTEEN         04160002
*****               THE FOLLOWING STATEMENT                *****        04200002
*****     NUMBER OF BITS EXCEED 15 - DO NOT USE AS BIN     *****        04240002
.EQU2    ANOP                                                  @YL02021 04280002
&EQUCNT  SETA  0                        CLEAR COUNTER          @YL02021 04320002
&EQUSYM  SETC  '&SYSLIST(&OP,4)'        GET EQU OPERAND        @YL02021 04360002
.EQULOP  ANOP                                                  @YL02021 04400002
&EQUCNT  SETA  &EQUCNT+1                INCREMENT INDEX        @YL02021 04440002
         AIF   ('&ITEM(&EQUCNT)' EQ '&EQUSYM').EQUOUT  LABEL FOUND?     04480002
         AIF   (&EQUCNT EQ &ITEMNBR).ERR4    ALL TESTED?       @YL02021 04520002
         AGO   .EQULOP                  NO-GET NEXT            @YL02021 04560002
.EQUOUT  ANOP                                                  @YL02021 04600002
&ITEM(&ITEMNBR) SETC '&SYMBOL'          GET LABEL NAME         @YL02021 04640002
&BITS(&ITEMNBR) SETA &SYSLIST(&OP,2)    GET NUMBER OF BITS     @YL02021 04680002
&SHIFT(&ITEMNBR) SETA &SHIFT(&EQUCNT)   GET SHIFT COUNT        @YL02021 04720002
&SYMBOL  EQU   &EQUSYM                  THIS SYMBOL EQUATED    @YL02021 04760002
         AGO   .START                   RETURN FOR NEXT        @YL02021 04800002
         MEND                                                  @YL02021 04840002
         EJECT                                                 @YL02021 04880002
         MACRO                                                          06050002
         LINEND                                                         06100002
.*                            THIS MACRO IS USED ONLY BY THE LINE       06150002
.*                                 MACRO TO SET THE NUMBER OF ENTRIES   06200002
.*                                 ASSOCIATED WITH EACH LINE.           06250002
         GBLA  &NRENTS                                                  06300002
         GBLC &NRENTSX                                                  06350002
         AIF   (&NRENTS EQ 0).NORENTS   TEST FOR NO COUNT               06400002
         ORG   &NRENTSX                                                 06450002
         DC    FL1'&NRENTS'                                             06500002
         ORG                                                            06550002
&NRENTS  SETA  0                                                        06600002
.NORENTS ANOP                                                           06650002
B&SYSNDX EQU   *                                                        06700002
&NRENTSX SETC  'B&SYSNDX'                                               06750002
         MEND                                                           06800002
*                                                                       06850002
         MACRO                                                 @YL02021 06900002
         BIN   ,                                               @YL02021 06940002
.*                                 &SYSLIST(&OP,1) - NAME OF LOG ITEM   06980002
.*                                      RECORD DSECT           @YL02021 07020002
.*                                 $SYSLIST(&OP,2) - NBR OF SPACES      07060002
.*                                      TO SKIP ON MULTIPLE    @YL02021 07100002
.*                                      PRINT OR NBR OF SPACES @YL02021 07140002
.*                                      TO BACK UP FROM COLUMN FOR      07180002
.*                                      START OF PRINTING. THE LETTER   07220002
.*                                      B PRECEEDS THE NUMBER (B5) IF   07260002
.*                                      THE LATTER IS DESIRED. OMISSION 07300002
.*                                      OF THIS OPERAND FORCES OPTION 2 07340002
.*                                      WITH BACKUP SPACING EQUAL TO    07380002
.*                                 THE NUMBER OF BITS IN THE ITEM       07420002
.*                                 DEFINITION (VIA MACRO 'DSGEN').      07460002
.*                            A LIMIT OF 15 BITS IS IMPOSED FOR THE     07500002
.*                                 TOTAL NUMBER OF BITS TO PRINT.       07540002
         GBLA  &INITIAL                                        @YL02021 07580002
         GBLB  &DIAGTST,&DIAGSET,&DIAGLIN                      @YL02021 07620002
         GBLC &ITEM(2000)                                      @YL02021 07660002
         GBLA &ITEMNBR,&BITS(2000),&SHIFT(2000),&NRENTS        @YL02021 07700002
         GBLC  &DSECT                                          @YL02021 07740002
         LCLB  &B,&SUB                                         @YL02021 07780002
         LCLA  &IBITS,&NDX,&ISHIFT,&K                          @YL02021 07820002
         LCLA  &TEMP,&T,&OP                                    @YL02021 07860002
         LCLC  &S                                              @YL02021 07900002
         AIF   (&DIAGTST EQ 0).NOMSG                           @YL02021 07940002
         AIF   (&INITIAL EQ 0).NOMSG                           @YL02021 07980002
         AIF   (&DIAGLIN EQ 1).NOMSG                           @YL02021 08020002
         MNOTE '**NO LINE ASSOCIATED WITH THIS DATA**'         @YL02021 08060002
*****THE FOLLOWING GENERATED FOR TEST PURPOSES*****            @YL02021 08100002
*        LINE                                                  @YL02021 08140002
         LINE                                                  @YL02021 08180002
.NOMSG   ANOP                                                  @YL02021 08220002
         AIF   (K'&SYSLIST(1) EQ K'&SYSLIST(1,1)).LOOP         @YL02021 08260002
&SUB     SETB  1                                               @YL02021 08300002
.LOOP    ANOP                                                  @YL02021 08340002
&OP      SETA  &OP+1                                           @YL02021 08380002
.LOOP1   ANOP                                                  @YL02021 08420002
&NDX     SETA  &NDX+1                                          @YL02021 08460002
         AIF   ('&ITEM(&NDX)' EQ '&SYSLIST(&OP,1)').FOUND      @YL02021 08500002
         AIF   (&NDX LT &ITEMNBR).LOOP1                        @YL02021 08540002
         MNOTE '**LOG ITEM NOT DEFINED**'                      @YL02021 08580002
         MEXIT                                                 @YL02021 08620002
.FOUND   ANOP                                                  @YL02021 08660002
&ISHIFT  SETA  &SHIFT(&NDX)                                    @YL02021 08700002
&IBITS   SETA  &BITS(&NDX)                                     @YL02021 08740002
&T       SETA  &IBITS-1                                        @YL02021 08780002
&B       SETB  0                                               @YL02021 08820002
         AIF   (&IBITS GT 0 AND &IBITS LT 16).SUB0             @YL02021 08860002
         MNOTE '**NO. OF BITS OUTSIDE RANGE OF 1-15**'         @YL02021 08900002
         MEXIT                                                 @YL02021 08940002
.SUB0    AIF   (&SUB EQ 1).SUBA                                @YL02021 08980002
         AIF   ('&SYSLIST(2)' EQ '').BACKUP                    @YL02021 09020002
&K       SETA  K'&SYSLIST(2)                                   @YL02021 09060002
&B       SETB  ('&SYSLIST(2)'(1,1) EQ 'B')                     @YL02021 09100002
&S       SETC  '&SYSLIST(2)'(&B+1,&K-&B)                       @YL02021 09140002
         AGO   .SUBB                                           @YL02021 09180002
.SUBA    ANOP                                                  @YL02021 09220002
         AIF   ('&SYSLIST(&OP,2)' EQ '').BACKUP                @YL02021 09260002
&K       SETA  K'&SYSLIST(&OP,2)                               @YL02021 09300002
&B       SETB  ('&SYSLIST(&OP,2)'(1,1) EQ 'B')                 @YL02021 09340002
&S       SETC  '&SYSLIST(&OP,2)'(&B+1,&K-&B)                   @YL02021 09380002
.SUBB    ANOP                                                  @YL02021 09420002
&T       SETA  &S                                              @YL02021 09460002
.BACKUP  ANOP                                                  @YL02021 09500002
&NRENTS  SETA  &NRENTS+1                                       @YL02021 09540002
&TEMP    SETA  &ISHIFT                                         @YL02021 09580002
         AIF   (&IBITS NE 1 OR &B NE 0).BIN2                   @YL02021 09620002
         DC    AL.12(&SYSLIST(&OP,1)-&DSECT),XL.4'&TEMP'       @YL02021 09660002
         AGO   .OUT                                            @YL02021 09700002
.BIN2    AIF   ('&SYSLIST(&OP,2)' NE '').BIN3                  @YL02021 09740002
&B       SETB  1                                               @YL02021 09780002
.BIN3    ANOP                                                  @YL02021 09820002
         DC    AL.12(&SYSLIST(&OP,1)-&DSECT),XL.4'C'           @YL02021 09860002
         DC    BL.1'&B',AL.7(&T),AL.4(&IBITS),FL.4'&ISHIFT'    @YL02021 09900002
.OUT     ANOP                                                  @YL02021 09940002
&NDX     SETA  0                                               @YL02021 09980002
         AIF   (&SUB EQ 0).OUTA                                @YL02021 10020002
         AIF   (&OP LT N'&SYSLIST).LOOP                        @YL02021 10060002
.OUTA    ANOP                                                  @YL02021 10100002
         MEND                                                  @YL02021 10140002
         EJECT                                                 @YL02021 10180002
         MACRO                                                          11000002
         HEX                                                            11050002
.*                            THIS MACRO FACILITATES GENERATION OF THE  11100002
.*                                 TABLE ENTRIES SPECIFYING HEX TYPE    11150002
.*                                 CONVERSIONS.                         11200002
.*                            &SYSLIST(&OP,1) - NAME OF DATA ITEM TO BE 11250002
.*                                 CONVERTED                            11300002
.*                            &SYSLIST(&OP,2) - # OF SPACES TO SKIP ON  11350002
.*                                 MULTIPLE PRINT OR NBR OF SPACES TO   11400002
.*                                 BACK UP FROM COLUMN FOR START OF     11450002
.*                                 PRINTING. THE LETTER B PRECEEDS THE  11500002
.*                                 NUMBER (B8) IF THE LATTER OPTION IS  11550002
.*                                 DESIRED. OMISSION OF THIS OPERAND    11600002
.*                                 FORCES OPTION 2 WITH BACKUP SPACING  11650002
.*                                 EQUAL TO THE NUMBER OF BYTES SPECI-  11700002
.*                                 FIED BY THE NEXT OPERAND (TWICE THIS 11750002
.*                                 NUMBER IF SUFFIX IS EXPLICITLY OR    11800002
.*                                 IMPLICITLY B).                       11850002
.*                            &SYSLIST(&OP,3) - NUMBER OF BYTES TO      11900002
.*                                 PROCESS. THIS NUMBER IS SUFFIXED     11950002
.*                                 WITH AN L,R, OR B TO STIPULATE       12000002
.*                                 PRINTING OF THE LEFT HALF, RIGHT     12050002
.*                                 HALF, OR BOTH HALVES OF THE BYTE     12100002
.*                                 RESPECTIVELY. OMISSION OF THIS       12150002
.*                                 OPERAND DEFAULTS TO B WITH THE NUM-  12200002
.*                                 BER OF BYTES EQUAL TO THE ITEM LNGTH 12250002
.*                            A NEW ENTRY IS GENERATED ONLY WHEN NECES- 12300002
.*                                 SARY. THIS MACRO MUST BE THE FIRST   12350002
.*                                 MACRO INSTRUCTION ISSUED FOR THE     12400002
.*                                 SUBJECT LINE(S).                     12450002
         GBLC &ITEM(2000),&DSECT                                        12500002
         GBLA &ITEMNBR,&BITS(2000),&SHIFT(2000),&NRENTS                 12550002
         GBLA  &INITIAL                                                 12600002
         GBLB  &DIAGTST,&DIAGSET,&DIAGLIN                               12650002
         LCLB  &B,&SUB                                                  12700002
         LCLA  &IBITS,&NDX,&ISHIFT,&K,&T,&CODE,&BYTESP,&OP              12750002
         LCLC  &S,&LETTER                                               12800002
         AIF   (&DIAGTST EQ 0).NOMSG                                    12850002
         AIF   (&INITIAL EQ 0).NOMSG                                    12900002
         AIF   (&DIAGLIN EQ 1).NOMSG                                    12950002
         MNOTE '**NO LINE ASSOCIATED WITH THIS DATA**'                  13000002
*****THE FOLLOWING GENERATED FOR TEST PURPOSES*****                     13050002
*        LINE                                                           13100002
         LINE                                                           13150002
.NOMSG   ANOP                                                           13200002
         AIF   (K'&SYSLIST(1) EQ K'&SYSLIST(1,1)).LOOP                  13250002
&SUB     SETB  1                                                        13300002
.LOOP    ANOP                                                           13350002
&OP      SETA  &OP+1                                                    13400002
.LOOP1   ANOP                                                           13450002
&NDX     SETA  &NDX+1                                                   13500002
         AIF   ('&ITEM(&NDX)' EQ '&SYSLIST(&OP,1)').FOUND               13550002
         AIF   (&NDX LT &ITEMNBR).LOOP1                                 13600002
         MNOTE '**LOG ITEM NOT DEFINED**'                               13650002
         MEXIT                                                          13700002
.FOUND   ANOP                                                           13750002
&ISHIFT  SETA  &SHIFT(&NDX)                                             13800002
&IBITS   SETA  &BITS(&NDX)                                              13850002
         AIF   (&ISHIFT EQ 0 OR &ISHIFT EQ 4).ALIGN                     13900002
.ERR     MNOTE '**DATA NOT ALLIGNED ON HEX OR BYTE BOUNDARY**'          13950002
         MEXIT                                                          14000002
.ALIGN   ANOP                                                           14050002
&CODE    SETA  1                                                        14100002
         AIF   (&SUB EQ 1).SUBA                                         14150002
&K       SETA  K'&SYSLIST(3)                                            14200002
         AGO   .SUBB                                                    14250002
.SUBA    ANOP                                                           14300002
&K       SETA  K'&SYSLIST(&OP,3)                                        14350002
.SUBB    ANOP                                                           14400002
         AIF   (&IBITS-(&IBITS/4)*4 EQ 0).OK                            14450002
         MNOTE '**BIT LENGTH SPECIFICATION INCONSISTENT WITH CONTROL**' 14500002
         MEXIT                                                          14550002
.OK      AIF   (&SUB EQ 1).SUBC                                         14600002
         AIF   ('&SYSLIST(3)' EQ '').USEDEFN                            14650002
&LETTER  SETC  '&SYSLIST(3)'(&K,1)                                      14700002
&S       SETC  '&SYSLIST(3)'(1,&K-1)                                    14750002
         AGO   .SUBD                                                    14800002
.SUBC    ANOP                                                           14850002
         AIF   ('&SYSLIST(&OP,3)' EQ '').USEDEFN                        14900002
&LETTER  SETC  '&SYSLIST(&OP,3)'(&K,1)                                  14950002
&S       SETC  '&SYSLIST(&OP,3)'(1,&K-1)                                15000002
.SUBD    ANOP                                                           15050002
&BYTESP  SETA  &S                                                       15100002
         AIF   ('&LETTER' EQ 'B').BOTH                                  15150002
         AIF   ('&LETTER' EQ 'L').LEFT                                  15200002
&CODE    SETA  2                                                        15250002
         AGO   .L                                                       15300002
.LEFT    ANOP                                                           15350002
&CODE    SETA  1                                                        15400002
         AGO   .L                                                       15450002
.USEDEFN ANOP                                                           15500002
&BYTESP  SETA  &IBITS/8                                                 15550002
.BOTH    AIF   (&ISHIFT NE 0).ERR                                       15600002
&CODE    SETA  3                                                        15650002
&T       SETA  &BYTESP*2-1                                              15700002
&S       SETC  '&T'                                                     15750002
.OK2     AIF   (&ISHIFT EQ 0).L                                         15800002
&CODE    SETA  2                                                        15850002
.L       ANOP                                                           15900002
&B       SETB  1                                                        15950002
         AIF   (&SUB EQ 1).SUBE                                         16000002
         AIF   ('&SYSLIST(2)' EQ '').BACKUP                             16050002
&K       SETA  K'&SYSLIST(2)                                            16100002
&B       SETB  ('&SYSLIST(2)'(1,1) EQ 'B')                              16150002
&S       SETC  '&SYSLIST(2)'(&B+1,&K-&B)                                16200002
         AGO   .SUBF                                                    16250002
.SUBE    ANOP                                                           16300002
         AIF   ('&SYSLIST(&OP,2)' EQ '').BACKUP                         16350002
&K       SETA  K'&SYSLIST(&OP,2)                                        16400002
&B       SETB  ('&SYSLIST(&OP,2)'(1,1) EQ 'B')                          16450002
&S       SETC  '&SYSLIST(&OP,2)'(&B+1,&K-&B)                            16500002
.SUBF    ANOP                                                           16550002
.BACKUP  ANOP                                                           16600002
&NRENTS  SETA  &NRENTS+1                                                16650002
         AIF   (&BYTESP GT 0 AND &BYTESP LT 16).SUB0                    16700002
         MNOTE '**NO. OF BYTES OUTSIDE RANGE OF 1-15**'                 16750002
         MEXIT                                                          16800002
.SUB0    AIF   (&SUB EQ 1).SUBG                                         16850002
         DC    AL.12(&SYSLIST(1)-&DSECT),XL.4'A'                        16900002
         AGO   .SUBH                                                    16950002
.SUBG    ANOP                                                           17000002
         DC    AL.12(&SYSLIST(&OP,1)-&DSECT),XL.4'A'                    17050002
.SUBH    ANOP                                                           17100002
         DC    BL.1'&B',FL.7'&S',AL.4(&BYTESP),FL.4'&CODE'              17150002
.OUT     ANOP                                                           17200002
&NDX     SETA  0                                                        17250002
         AIF   (&SUB EQ 0).OUTA                                         17300002
         AIF   (&OP LT N'&SYSLIST).LOOP                                 17350002
.OUTA    ANOP                                                           17400002
         MEND                                                           17450002
         MACRO                                                 @YL02021 17500002
         LSTART ,                                              @YL02021 17540002
.*                            THIS MACRO IS ISSUED WHEN THE LABEL AREA  17580002
.*                                 OF THE TABLE IS TO BEGIN.   @YL02021 17620002
         GBLA  &LABELNR                                        @YL02021 17660002
         GBLC  &LBL(100)                                       @YL02021 17700002
         GBLC &LABELS(2000)                                    @YL02021 17740002
         GBLA  &LBLCTR(100)                                    @YL02021 17780002
         GBLB  &DIAGTST,&DIAGSET,&DIAGLIN                      @YL02021 17820002
         LCLA  &NDX,&CTR                                       @YL02021 17860002
         AIF   (&DIAGTST EQ 0).NODIAG                          @YL02021 17900002
         AIF   (&DIAGSET EQ 0).NODIAG                          @YL02021 17940002
         MNOTE '**NO LABEL ASSOCIATED WITH LAST SET**'         @YL02021 17980002
***** THE FOLLOWING GENERATED FOR TEST PURPOSES *****          @YL02021 18020002