*  DSGEN MACRO     DSGEN MACRO     DSGEN MACRO     DSGEN MACRO        * 00120002
         SPACE 2                                                        00240002
         MACRO                                                          00360002
&NAME    DSGEN &X1,&X2,&X3,&X4,&X5,&X6,&X7,&X8,&X9,&X10,&X11,&X12,&X13,X00480002
               &X14,&X15,&X16,&X17,&X18,&X19,&X20,&X21,&X22,&X23,&X24, X00600002
               &X25,&X26,&X27,&X28,&X29,&X30,&X31,&X32                  00720002
.*                            THIS MACRO GENERATES ONE DSECT WORD       00840002
.*                                 FORMATTED FOR THE SUBJECT LOG RECORD 00960002
.*                                 EACH OPERAND HAS TWO SUB LISTS. THE  01080002
.*                                 FIRST IS THE NAME OF THE LOG ITEM    01200002
.*                                 WHILE THE SECOND IS THE # OF BITS TO 01320002
.*                                 ALLOCATE FOR THIS ITEM. ITEMS MUST   01440002
.*                                 BE DEFINED CONTIGUOUSLY WITHOUT GAPS 01560002
.*                                 UNUSED BIT GROUPS MUST BE GIVEN      01680002
.*                                 DUMMY NAMES. THE NAMES PROVIDED FOR  01800002
.*                                 THE LOG ITEMS MAY THEN BE USED IN    01920002
.*                                 THE CONVERSION MACRO INSTRUCTIONS.   02040002
         GBLC &ITEM(1000)                                               02160002
         GBLA &ITEMNBR,&BITS(1000),&SHIFT(1000)                         02280002
         LCLC  &SYMBOL                                                  02400002
         LCLA  &OP,&COUNT,&BYTE                                         02520002
.LOOP    ANOP                                                           02640002
&OP      SETA  &OP+1                                                    02760002
&ITEMNBR SETA  &ITEMNBR+1                                               02880002
&SYMBOL  SETC  '&SYSLIST(&OP,1)'                                        03000002
         AIF   ('&SYSLIST(&OP,2)' NE '').OK1                            03120002
         MNOTE *,'NULL BIT COUNT FIELD'                                 03240002
         MEXIT                                                          03360002
.OK1     ANOP                                                           03480002
         AIF   ('&SYMBOL' NE '').OK                                     03600002
         MNOTE 'LOG ITEM SYMBOL NOT PROVIDED'                           03720002
         AGO   .CNT                                                     03840002
.OK      ANOP                                                           03960002
         AIF   ('&SYMBOL'(1,1) EQ '''').CNT                *TEMP*       04080002
&SYMBOL  EQU   *+&BYTE                                                  04200002
&ITEM(&ITEMNBR)  SETC '&SYSLIST(&OP,1)'                                 04320002
&BITS(&ITEMNBR) SETA &SYSLIST(&OP,2)                                    04440002
&SHIFT(&ITEMNBR) SETA &COUNT-&BYTE*8                                    04560002
.CNT     ANOP                                                           04680002
&COUNT   SETA  &COUNT+&SYSLIST(&OP,2)                                   04800002
&BYTE    SETA  &COUNT/8                                                 04920002
         AIF (&OP LT N'&SYSLIST).LOOP                                   05040002
         AIF   (&COUNT NE 32).NOT32                                     05160002
&NAME    DS    4C                                                       05280002
         MEXIT                                                          05400002
.NOT32   AIF   (&COUNT NE 64).ERR                                       05520002
&NAME    DS    8C                                                       05640002
         MEXIT                                                          05760002
.ERR     MNOTE '**BIT COUNT FIELDS DO NOT TOTAL 32 OR 64**'             05880002
         MEND                                                           06000002
         EJECT                                                          06120002
*  LINE MACRO     LINE MACRO     LINE MACRO     LINE MACRO            * 06240002
         SPACE 2                                                        06360002
         MACRO                                                          06480002
&NAME    LINE  &DATA,&LABEL,&SKIP=                                      06600002
.*                            THIS MACRO ESTABLISHES THE MARGINS OR     06720002
.*                                 COLUMN SETTINGS FOR EACH LINE. IT    06840002
.*                                 GENERATES NECESSARY CARRIAGE CONTROL 06960002
.*                                 ENTRIES. LASTLY IT DETERMINES THE    07080002
.*                                 NUMBER OF ENTRIES ASSOCIATED WITH    07200002
.*                                 THE PREVIOUS LINE AND STORES THAT #  07320002
.*                                 INTO THE APPROPRIATE BYTE.           07440002
.*                            &DATA(1) - CHARACTER POSITION TO BEGIN    07560002
.*                                 DATA.                                07680002
.*                            &DATA(2) - # OF SPACES BETWEEN SUCCESSIVE 07800002
.*                                 DATA COLUMN STARTING CHARACTERS.     07920002
.*                            &LABEL(1) - CHAR. POS. TO BEGIN LABELS.   08040002
.*                            &LABEL(2) - # SPACES BETWEEN LINE'S LABEL 08160002
.*                                 STARTING CHARACTERS.                 08280002
.*                            &SKIP= - # OF LINES TO ADVANCE CARRIAGE   08400002
.*                                 TO BEGIN NEXT PRINTED LINE.          08520002
.*                            NEW ENTRIES ARE GENERATED ONLY WHEN       08640002
.*                                 NECESSARY. OMISSION OF ITEMS MEANS   08760002
.*                                 THEY HAVE NOT CHANGED SINCE PREVIOUS 08880002
.*                                 SETTINGS. A LINE MACRO IS REQUIRED   09000002
.*                                 FOR EACH PRINTED LINE. IF NO SETTING 09120002
.*                                 CHANGES ARE REQUIRED ALL OPERANDS    09240002
.*                                 ARE OMITTED IN WHICH CASE ONLY THE   09360002
.*                                 # OF ENTRIES FOR THE PREVIOUS LINE   09480002
.*                                 IS COMPUTED. THIS MACRO MUST BE THE  09600002
.*                                 FIRST MACRO INSTRUCTION ISSUED FOR   09720002
.*                                 THE SUBJECT LINE                     09840002
         GBLA  &DB,&DT,&LB,&LT,&NRENTS                                  09960002
         GBLA  &LASTCC,&INITIAL                                         10080002
         GBLC  &NRENTSX                                                 10200002
         GBLC  &CARRCON                                                 10320002
         GBLB  &TEST                                                    10440002
         LCLA  &S                                                       10560002
&NAME    DS    0C                                                       10680002
         AIF   (&INITIAL EQ 0).FIRSTLN                                  10800002
         LINEND                                                         10920002
         AGO   .NTFIRST                                                 11040002
.FIRSTLN ANOP                                                           11160002
&NRENTSX SETC  'N&SYSNDX'                                               11280002
&INITIAL SETA  1                                                        11400002
N&SYSNDX EQU   *                                                        11520002
.NTFIRST ANOP                                                           11640002
         DC    AL1(0)                                                   11760002
         AIF   ('&DATA(1)' EQ '').CKDTABS                               11880002
         AIF   (&DATA(1) EQ &DB).CKDTABS                                12000002
&DB      SETA  &DATA(1)                                                 12120002
         AGO   .AA                                                      12240002
.CKDTABS AIF   ('&DATA(2)' EQ '').NCDATA                                12360002
         AIF   (&DATA(2) EQ &DT).NCDATA                                 12480002
         AGO   .CC                                                      12600002
.AA      AIF   ('&DATA(2)' EQ '').BB                                    12720002
         AIF   (&DATA(2) EQ &DT).BB                                     12840002
.CC      ANOP                                                           12960002
&DT      SETA  &DATA(2)                                                 13080002
.BB      DC    XL2'FFFE'                                                13200002
         DC    FL1'&DB'                                                 13320002
         DC    FL1'&DT'                                                 13440002
&NRENTS  SETA  &NRENTS+1                                                13560002
.NCDATA  ANOP                                                           13680002
         AIF   ('&LABEL(1)' EQ '').CKLTABS                              13800002
         AIF   (&LABEL(1) EQ &LB).CKLTABS                               13920002
&LB      SETA  &LABEL(1)                                                14040002
         AGO   .AAA                                                     14160002
.CKLTABS AIF   ('&LABEL(2)' EQ '').NCLABEL                              14280002
         AIF   (&LABEL(2) EQ &LT).NCLABEL                               14400002
         AGO   .CCC                                                     14520002
.AAA     AIF   ('&LABEL(2)' EQ '').BBB                                  14640002
         AIF   (&LABEL(2) EQ &LT).BBB                                   14760002
.CCC     ANOP                                                           14880002
&LT      SETA  &LABEL(2)                                                15000002
.BBB     DC    XL2'FFFF'                                                15120002
         DC    FL1'&LB'                                                 15240002
         DC    FL1'&LT'                                                 15360002
&NRENTS  SETA  &NRENTS+1                                                15480002
.NCLABEL ANOP                                                           15600002
         AIF   ('&SKIP' NE '').CONT                                     15720002
         AIF   (&TEST EQ 0).NOCHANG                                     15840002
&S       SETA  &LASTCC                                                  15960002
         AGO   .DEFAULT                                                 16080002
.CONT    ANOP                                                           16200002
         AIF   (&TEST EQ 0).AB                                          16320002
&S       SETA  &SKIP                                                    16440002
.DEFAULT ANOP                                                           16560002
         ORG   &CARRCON+3                                               16680002
         DC    AL.3(0),AL.2(&S),AL.3(1)                                 16800002
         ORG                                                            16920002
&LASTCC  SETA  &S                                                       17040002
&TEST    SETB  0                                                        17160002
         AGO   .DD                                                      17280002
.AB      AIF   (&SKIP EQ &LASTCC).NOCHANG                               17400002
A&SYSNDX DC    XL2'FFFB'                                                17520002
         DC    AL.3(0),AL.2(&SKIP),AL.3(1)                              17640002
         DC    FL1'9'                                                   17760002
&LASTCC  SETA  &SKIP                                                    17880002
&TEST    SETB  1                                                        18000002
&CARRCON SETC  'A&SYSNDX'                                               18120002
&NRENTS  SETA  &NRENTS+1                                                18240002
.DD      ANOP                                                           18360002
.NOCHANG ANOP                                                           18480002
         MEND                                                           18600002
         EJECT                                                          18720002
*  BIN MACRO     BIN MACRO     BIN MACRO     BIN MACRO     BIN MACRO  * 18840002
         SPACE 2                                                        18960002
         MACRO                                                          19080002
         BIN   &LOGITEM,&SKIP$OR                                        19200002
.*                                 &LOGITEM - NAME OF ITEM IN LOG       19320002
.*                                      RECORD DSECT                    19440002
.*                                 &SKIP$OR - NBR OF SPACES TO SKIP ON  19560002
.*                                 MULTIPLE PRINT OR NBR OF SPACES      19680002
.*                                      TO BACK UP FROM COLUMN FOR      19800002
.*                                      START OF PRINTING. THE LETTER   19920002
.*                                      B PRECEEDS THE NUMBER (B5) IF   20040002
.*                                      THE LATTER IS DESIRED. OMISSION 20160002
.*                                      OF THIS OPERAND FORCES OPTION 2 20280002
.*                                      WITH BACKUP SPACING EQUAL TO    20400002
.*                                 THE NUMBER OF BITS IN THE ITEM       20520002
.*                                 DEFINITION (VIA MACRO 'DSGEN').      20640002
.*                            A LIMIT OF 15 BITS IS IMPOSED FOR THE     20760002
.*                                 TOTAL NUMBER OF BITS TO PRINT.       20880002
         GBLC &ITEM(1000)                                               21000002
         GBLA &ITEMNBR,&BITS(1000),&SHIFT(1000),&NRENTS                 21120002
         GBLC  &DSECT                                                   21240002
         LCLB  &B                                                       21360002
         LCLA  &IBITS,&NDX,&ISHIFT,&K                                   21480002
         LCLA  &TEMP,&T                                                 21600002
         LCLC  &S                                                       21720002
.LOOP    ANOP                                                           21840002
&NDX     SETA  &NDX+1                                                   21960002
         AIF   ('&ITEM(&NDX)' EQ '&LOGITEM').FOUND                      22080002
         AIF   (&NDX LT &ITEMNBR).LOOP                                  22200002
         MNOTE *,'YOU BLEW IT'                                          22320002
         ROUTINE DUM,SKIPPER                                            22440002
         MEXIT                                                          22560002
.FOUND   ANOP                                                           22680002
&ISHIFT  SETA  &SHIFT(&NDX)                                             22800002
&IBITS   SETA  &BITS(&NDX)                                              22920002
&T       SETA  &IBITS-1                                                 23040002
&B       SETB  0                                                        23160002
         AIF   ('&SKIP$OR' EQ '').BACKUP                                23280002
&K       SETA  K'&SKIP$OR                                               23400002
&B       SETB  ('&SKIP$OR'(1,1) EQ 'B')                                 23520002
&S       SETC  '&SKIP$OR'(&B+1,&K-&B)                                   23640002
&T       SETA  &S                                                       23760002
.BACKUP  ANOP                                                           23880002
&NRENTS  SETA  &NRENTS+1                                                24000002
&TEMP    SETA  &ISHIFT                                                  24120002
A&SYSNDX DC    AL.12(&LOGITEM-&DSECT),XL.4'&TEMP'                       24240002
         AIF (&IBITS EQ 1 AND &B EQ 0).OUT                              24360002
         ORG   A&SYSNDX                                                 24480002
&B       SETB  1                                                        24600002
         DC    AL.12(&LOGITEM-&DSECT),XL.4'C'                           24720002
         DC    BL.1'&B',AL.7(&T),AL.4(&IBITS),FL.4'&ISHIFT'             24840002
.OUT     ANOP                                                           24960002
         MEND                                                           25080002
         EJECT                                                          25200002
*  HEX MACRO     HEX MACRO     HEX MACRO    HEXN MACRO     HEX MACRO  * 25320002
         SPACE 2                                                        25440002
         MACRO                                                          25560002
         HEX   &LOGITEM,&SKIP$OR,&BYTES                                 25680002
.*                            THIS MACRO FACILITATES GENERATION OF THE  25800002
.*                                 TABLE ENTRIES SPECIFYING HEX TYPE    25920002
.*                                 CONVERSIONS.                         26040002
.*                            &LOGITEM - NAME OF DATA ITEM TO BE        26160002
.*                                 CONVERTED                            26280002
.*                            &SKIP$OR - NUMBER OF SPACES TO SKIP ON    26400002
.*                                 MULTIPLE PRINT OR NBR OF SPACES TO   26520002
.*                                 BACK UP FROM COLUMN FOR START OF     26640002
.*                                 PRINTING. THE LETTER B PRECEEDS THE  26760002
.*                                 NUMBER (B8) IF THE LATTER OPTION IS  26880002
.*                                 DESIRED. OMISSION OF THIS OPERAND    27000002
.*                                 FORCES OPTION 2 WITH BACKUP SPACING  27120002
.*                                 EQUAL TO THE NUMBER OF BYTES SPECI-  27240002
.*                                 FIED BY THE NEXT OPERAND (TWICE THIS 27360002
.*                                 NUMBER IF SUFFIX IS EXPLICITLY OR    27480002
.*                                 IMPLICITLY B).                       27600002
.*                            &BYTES - NUMBER OF TOTAL INPUT BYTES TO   27720002
.*                                 PROCESS. THIS NUMBER IS SUFFIXED     27840002
.*                                 WITH AN L,R, OR B TO STIPULATE       27960002
.*                                 PRINTING OF THE LEFT HALF, RIGHT     28080002
.*                                 HALF, OR BOTH HALVES OF THE BYTE     28200002
.*                                 RESPECTIVELY. OMISSION OF THIS       28320002
.*                                 OPERAND DEFAULTS TO B WITH THE NUM-  28440002
.*                                 BER OF BYTES EQUAL TO THE ITEM LNGTH 28560002
.*                            A NEW ENTRY IS GENERATED ONLY WHEN NECES- 28680002
.*                                 SARY. THIS MACRO MUST BE THE FIRST   28800002
.*                                 MACRO INSTRUCTION ISSUED FOR THE     28920002
.*                                 SUBJECT LINE(S).                     29040002
         GBLC &ITEM(1000),&DSECT                                        29160002
         GBLA &ITEMNBR,&BITS(1000),&SHIFT(1000),&NRENTS                 29280002
         LCLB  &B                                                       29400002
         LCLA  &IBITS,&NDX,&ISHIFT,&K,&T,&CODE,&BYTESP                  29520002
         LCLC  &S,&LETTER                                               29640002
.LOOP    ANOP                                                           29760002
&NDX     SETA  &NDX+1                                                   29880002
         AIF   ('&ITEM(&NDX)' EQ '&LOGITEM').FOUND                      30000002
         AIF   (&NDX LT &ITEMNBR).LOOP                                  30120002
         MNOTE *,'LOG ITEM NOT DEFINED'                                 30240002
         MEXIT                                                          30360002
.FOUND   ANOP                                                           30480002
&ISHIFT  SETA  &SHIFT(&NDX)                                             30600002
&IBITS   SETA  &BITS(&NDX)                                              30720002
&CODE    SETA  1                                                        30840002
&K       SETA  K'&BYTES                                                 30960002
         AIF   (&IBITS-(&IBITS/4)*4 EQ 0).OK                            31080002
         MNOTE *,'BIT LENGTH SPECIFICATION INCONSISTENT WITH CONTROL'   31200002
         MEXIT                                                          31320002
.OK      AIF   ('&BYTES' EQ '').USEDEFN                                 31440002
&LETTER  SETC  '&BYTES'(&K,1)                                           31560002
&S       SETC  '&BYTES'(1,&K-1)                                         31680002
&BYTESP  SETA  &S                                                       31800002
         AIF   ('&LETTER' EQ 'B').BOTH                                  31920002
         AIF   (&ISHIFT EQ 0 OR &ISHIFT EQ 4).OK2                       32040002
.ERR     MNOTE *,'DATA NOT ALLIGNED ON HEX OR BYTE BOUNDARY'            32160002
         MEXIT                                                          32280002
.USEDEFN ANOP                                                           32400002
&BYTESP  SETA  &IBITS/8                                                 32520002
.BOTH    AIF   (&ISHIFT NE 0).ERR                                       32640002
&CODE    SETA  3                                                        32760002
&T       SETA  &BYTESP*2-1                                              32880002
&S       SETC  '&T'                                                     33000002
.OK2     AIF   (&ISHIFT EQ 0).L                                         33120002
&CODE    SETA  2                                                        33240002
.L       ANOP                                                           33360002
&B       SETB  1                                                        33480002
         AIF   ('&SKIP$OR' EQ '').BACKUP                                33600002
&K       SETA  K'&SKIP$OR                                               33720002
&B       SETB  ('&SKIP$OR'(1,1) EQ 'B')                                 33840002
&S       SETC  '&SKIP$OR'(&B+1,&K-&B)                                   33960002
.BACKUP  ANOP                                                           34080002
&NRENTS  SETA  &NRENTS+1                                                34200002
         DC    AL.12(&LOGITEM-&DSECT),XL.4'A'                           34320002
         DC    BL.1'&B',FL.7'&S',FL.4'&BYTESP',FL.4'&CODE'              34440002
.OUT     ANOP                                                           34560002
         MEND                                                           34680002
         SPACE 2                                                        34800002
*  ROUTINE MACRO     ROUTINE MACRO     ROUTINE MACRO     ROUTINE MACRO* 34920002
         SPACE 2                                                        35040002
         MACRO                                                          35160002
&NAME    ROUTINE &LOGITEM,&RNAME                                        35280002
         GBLC  &DSECT,&CSECT                                            35400002
         GBLC  &ITEM(1000)                                              35520002
         GBLA  &SHIFT(1000),&ITEMNBR                                    35640002
         GBLA  &NRENTS                                                  35760002
         LCLA  &ISHIFT,&NDX                                             35880002
.LOOP    ANOP                                                           36000002
&NDX     SETA  &NDX+1                                                   36120002
         AIF   ('&ITEM(&NDX)' EQ '&LOGITEM').FOUND                      36240002
         AIF   (&NDX LT &ITEMNBR).LOOP                                  36360002
         MNOTE *,'LOG ITEM NOT DEFINED'                                 36480002
         MEXIT                                                          36600002
.FOUND   ANOP                                                           36720002
&ISHIFT  SETA  &SHIFT(&NDX)                                             36840002
&NAME    DC    AL.12(&LOGITEM-&DSECT),XL.4'D'                           36960002
         DC    AL.4(&ISHIFT),AL.12(&RNAME-&CSECT)                       37080002
&NRENTS  SETA  &NRENTS+1                                                37200002
         MEND                                                           37320002
         EJECT                                                          37440002
*  LABEL MACRO     LABEL MACRO     LABEL MACRO     LABEL MACRO        * 37560002
         SPACE 2                                                        37680002
         MACRO                                                          37800002
         LABEL &LABEL1,&LABEL2,&LABEL3,&LABEL4,&LABEL5,&LABEL6,        C37920002
               &LABEL7,&LABEL8                                          38040002
.*                            THIS MACRO ALLOWS UP TO ACHT LABELS TO    38160002
.*                                 BE SPECIFIED FOR A GIVEN LINE. THE   38280002
.*                                 LABELS SHOULD BE ENCLOSED IN QUOTA-  38400002
.*                                 TION MARKS. THE COLUMN AND LINE END  38520002
.*                                 CONTROLS WILL BE INSERTED BY THE     38640002
.*                                 MACRO. OMITTED OPERANDS MEAN NO      38760002
.*                                 LABEL REQUIRED FOR RESPECTIVE        38880002
.*                                 COLUMN. THIS MACRO WILL ALSO ALERT   39000002
.*                                 THE PROGRAMMER TO EXACTLY WHERE THE  39120002
.*                                 TABLE MUST BE BROKEN IF NECESSARY    39240002
.*                                 TO AVOID EXCEEDING THE MAXIMUM LIMIT 39360002
         GBLC &LABELS(1000)                                             39480002
         GBLA  &LABELNR                                                 39600002
         GBLA  &NRENTS                                                  39720002
         LCLC  &MARGIN,&TACK                                            39840002
         LCLC  &TEXT                                                    39960002
         LCLA  &OP,&K,&START,&NRCHAR,&REMAIN                            40080002
&MARGIN  SETC  '*'                                                      40200002
.LOOPOUT ANOP                                                           40320002
&OP      SETA  &OP+1                                                    40440002
&K       SETA  K'&SYSLIST(&OP)                                          40560002
         AIF (&K GE 2).NORM                                             40680002
&K       SETA  2                                                        40800002
.NORM    ANOP                                                           40920002
&START   SETA  2                                                        41040002
         AIF (&OP LT N'&SYSLIST).NOTLAST                                41160002
&MARGIN  SETC  '$'                                                      41280002
.NOTLAST ANOP                                                           41400002
&NRCHAR  SETA  8                                                        41520002
&TACK    SETC  ''                                                       41640002
.LOOPIN  ANOP                                                           41760002
&REMAIN  SETA  &K-&START                                                41880002
         AIF (&REMAIN GE 8).MORE                                        42000002
&TACK    SETC  '&MARGIN'                                                42120002
&NRCHAR  SETA  &REMAIN                                                  42240002
.MORE    ANOP                                                           42360002
&TEXT    SETC  ''                                                       42480002
         AIF (&REMAIN EQ 0).ENDTEXT                                     42600002
&TEXT    SETC  '&SYSLIST(&OP)'(&START,&NRCHAR)                          42720002
.ENDTEXT ANOP                                                           42840002
&LABELNR SETA  &LABELNR+1                                               42960002
&LABELS(&LABELNR) SETC '&TEXT'.'&TACK'                                  43080002
&START   SETA  &START+8                                                 43200002
         AIF ('&TACK' EQ '').LOOPIN                                     43320002
         AIF ('&TACK' EQ '*').LOOPOUT                                   43440002
         MEND                                                           43560002
         MACRO                                                          43680002
         LSTART                                                         43800002