         TITLE 'IFCEVOL0  MES DATA EDIT BY VOLUME'                      00100042
         MACRO                                                          00200042
&NAME    DSGEN                                                          00300042
.*                            THIS MACRO GENERATES ONE DSECT WORD       00400042
.*                                 FORMATTED FOR THE SUBJECT LOG RECORD 00500042
.*                                 EACH OPERAND HAS TWO SUB LISTS. THE  00600042
.*                                 FIRST IS THE NAME OF THE LOG ITEM    00700042
.*                                 WHILE THE SECOND IS THE # OF BITS TO 00800042
.*                                 ALLOCATE FOR THIS ITEM. ITEMS MUST   00900042
.*                                 BE DEFINED CONTIGUOUSLY WITHOUT GAPS 01000042
.*                                 UNUSED BIT GROUPS MUST BE GIVEN      01100042
.*                                 DUMMY NAMES. THE NAMES PROVIDED FOR  01200042
.*                                 THE LOG ITEMS MAY THEN BE USED IN    01300042
.*                                 THE CONVERSION MACRO INSTRUCTIONS.   01400042
         GBLC &ITEM(1000)                                               01500042
         GBLA &ITEMNBR,&BITS(1000),&SHIFT(1000)                         01600042
         LCLB  &ONLY1,&CTIND                                            01700042
         LCLA  &START1,&START2,&END1,&END2                              01800042
         LCLC  &SYMBOL,&EQUSYM                                          01900042
         LCLA  &OP,&COUNT,&BYTE,&EQUCNT                                 02000042
         ACTR  100000                                                   02100042
.START   AIF   (N'&SYSLIST(&OP+1) LT 3).LOOP                            02200042
         AIF   ('&SYSLIST(&OP+1,3)' EQ 'EQU').LOOP     TEST FOR EQU     02300042
  AIF   ('&SYSLIST(&OP+1,3)' EQ '' AND '&SYSLIST(&OP+1,4)' EQ '').ERR1  02400042
  AIF   ('&SYSLIST(&OP+1,3)' EQ '' OR '&SYSLIST(&OP+1,4)' EQ '').ERR1   02500042
         AIF   ('&SYSLIST(&OP+1,3)' GT '&SYSLIST(&OP+1,4)').ERR3        02600042
&START1  SETA  &SYSLIST(&OP+1,3)        GET START COUNT OF 1            02700042
&START2  SETA  &SYSLIST(&OP+1,4)        GET FIRST END COUNT             02800042
         AGO   .SET2A                   BRANCH AROUND                   02900042
.ERR1    MNOTE '**FIRST SYMBOL CONCATENATION INCOMPLETE**'              03000042
         MEXIT                                                          03100042
.SET2A   AIF   ('&SYSLIST(&OP+1,5)' EQ ''AND '&SYSLIST(&OP+1,6)' EQ '' X03200042
               ).SET2                   TEST FOR NO SECOND              03300042
  AIF   ('&SYSLIST(&OP+1,5)' EQ '' OR '&SYSLIST(&OP+1,6)' EQ '').ERR2   03400042
         AIF   ('&SYSLIST(&OP+1,5)' GT '&SYSLIST(&OP+1,6)').ERR3        03500042
&END1    SETA  &SYSLIST(&OP+1,5)        GET START COUNT OF 2            03600042
&END2    SETA  &SYSLIST(&OP+1,6)        GET END COUNT OF 2              03700042
         AGO   .LOOP                                                    03800042
.SET2    ANOP                                                           03900042
&ONLY1   SETB  1                        INDICATE ONLY ONE CONCATENATION 04000042
         AGO   .LOOP                                                    04100042
.ERR2    MNOTE '**SECOND SYMBOL CONCATENATION INCOMPLETE**'             04200042
         MEXIT                                                          04300042
.ERR3    MNOTE '**START GREATER THAN END CONCATENATION**'               04400042
         MEXIT                                                          04500042
.LOOP    ANOP                                                           04600042
&OP      SETA  &OP+1                                                    04700042
         AIF   (&OP GT N'&SYSLIST).DONE      TEST IF ALL DONE           04800042
&ITEMNBR SETA  &ITEMNBR+1                                               04900042
         AIF   ('&SYSLIST(&OP,2)' NE '').OK1                            05000042
         MNOTE '**NULL BIT COUNT FIELD**'                               05100042
         MEXIT                                                          05200042
.OK1     ANOP                                                           05300042
&SYMBOL  SETC  '&SYSLIST(&OP,1)'                                        05400042
         AIF   ('&SYMBOL' NE '').OK                                     05500042
*              *****     LOG ITEM SYMBOL NOT PROVIDED     *****         05600042
         AIF   ('&SYSLIST(&OP,3)' NE 'EQU').CNT                         05700042
         AGO   .START                   GET NEXT                        05800042
.OK      AIF   (N'&SYSLIST(&OP) LT 3).NO3    TEST FOR OLD FORMAT        05900042
         AIF   ('&SYSLIST(&OP,3)' EQ 'EQU').EQU   TEST FOR EQU          06000042
         AIF   (&ONLY1).OK2             TEST FOR ONLY ONE CONCAT        06100042
&SYMBOL  SETC  '&SYMBOL.&START1.&END1'       GET 1 AND 2 CONCAT         06200042
         AGO   .NO3                     BRANCH AROUND                   06300042
.OK2     ANOP                                                           06400042
&SYMBOL  SETC  '&SYMBOL.&START1'        GET 1 CONCATENATED              06500042
.NO3     ANOP                                                           06600042
&SYMBOL  EQU   *+&BYTE                                                  06700042
&ITEM(&ITEMNBR) SETC '&SYMBOL'          GET LABEL IN GLOBAL             06800042
&BITS(&ITEMNBR) SETA &SYSLIST(&OP,2)                                    06900042
&SHIFT(&ITEMNBR) SETA &COUNT-&BYTE*8                                    07000042
.CNT     ANOP                                                           07100042
&CTIND   SETB  1                        SET COUNT INDICATOR             07200042
&COUNT   SETA  &COUNT+&SYSLIST(&OP,2)                                   07300042
&BYTE    SETA  &COUNT/8                                                 07400042
         AIF   (N'&SYSLIST(&OP) LT 3).START  TEST FOR OLD FORMAT        07500042
         AIF   (&ONLY1).TSTST           TEST FOR ONLY ONE CONCAT        07600042
         AIF   (&END1 EQ &END2).TSTST   TEST FOR SECOND END             07700042
&END1    SETA  &END1+1                  INCREMENT COUNT                 07800042
&OP      SETA  &OP-1                    DECREMENT INCREMENT             07900042
         AGO   .LOOP                    GENERATE NEXT                   08000042
.TSTST   ANOP                                                           08100042
         AIF   (&START1 EQ &START2).LPDONE   TEST FOR END               08200042
         AIF   (&ONLY1).NSET1           TEST FOR ONLY ONE CONCAT        08300042
&END1    SETA  &SYSLIST(&OP,5)          RE-INIT SECOND START COUNT      08400042
.NSET1   ANOP                                                           08500042
&OP      SETA  &OP-1                    DECREMENT INDEX                 08600042
&START1  SETA  &START1+1                INCREMENT FIRST COUNT           08700042
         AGO   .LOOP                    GO DO NEXT                      08800042
.LPDONE  ANOP                                                           08900042
&ONLY1   SETB  0                        CLEAR INDICATOR                 09000042
         AGO   .START                   GO TEST FOR MORE SUB-LISTS      09100042
.DONE    AIF   (&COUNT-&COUNT/8*8 NE 0).ERR  TEST FOR MULTIPLE OF EIGHT 09200042
         AIF   (&CTIND EQ 0).END        NO DS IF NO COUNT               09300042
&COUNT   SETA  &COUNT/8                 GET NUMBER OF BYTES             09400042
&NAME    DS    &COUNT.C                                                 09500042
.END     MEXIT                                                          09600042
.ERR     MNOTE '**BIT COUNT FLDS DO NOT TOTAL MULTIPLE OF 8**'          09700042
         MEXIT                                                          09800042
.EQU     AIF   ('&SYSLIST(&OP,4)' NE '').EQU1     TEST FOR NULL LABEL   09900042
.ERR4    MNOTE '**EQU OPERAND OMITTED OR NOT FOUND**'                   10000042
         MEXIT                                                          10100042
.EQU1    AIF   (&SYSLIST(&OP,2) LT 16).EQU2  COUNT OVER FIFTEEN         10200042
*****               THE FOLLOWING STATEMENT                *****        10300042
*****     NUMBER OF BITS EXCEED 15 - DO NOT USE AS BIN     *****        10400042
.EQU2    ANOP                                                           10500042
&EQUCNT  SETA  0                        CLEAR COUNTER                   10600042
&EQUSYM  SETC  '&SYSLIST(&OP,4)'        GET EQU OPERAND                 10700042
.EQULOP  ANOP                                                           10800042
&EQUCNT  SETA  &EQUCNT+1                INCREMENT INDEX                 10900042
         AIF   ('&ITEM(&EQUCNT)' EQ '&EQUSYM').EQUOUT  LABEL FOUND?     11000042
         AIF   (&EQUCNT EQ &ITEMNBR).ERR3    ALL TESTED?                11100042
         AGO   .EQULOP                  NO-GET NEXT                     11200042
.EQUOUT  ANOP                                                           11300042
&ITEM(&ITEMNBR) SETC '&SYMBOL'          GET LABEL NAME                  11400042
&BITS(&ITEMNBR) SETA &SYSLIST(&OP,2)    GET NUMBER OF BITS              11500042
&SHIFT(&ITEMNBR) SETA &SHIFT(&EQUCNT)   GET SHIFT COUNT                 11600042
&SYMBOL  EQU   &EQUSYM                  THIS SYMBOL EQUATED             11700042
         AGO   .START                   RETURN FOR NEXT                 11800042
         MEND                                                           11900042
*  LINE MACRO     LINE MACRO     LINE MACRO     LINE MACRO            * 12000042
         SPACE 2                                                        12100042
         MACRO                                                          12200042
&NAME    LINE  &DATA,&LABEL,&SKIP=                                      12300042
.*                            THIS MACRO ESTABLISHES THE MARGINS OR     12400042
.*                                 COLUMN SETTINGS FOR EACH LINE. IT    12500042
.*                                 GENERATES NECESSARY CARRIAGE CONTROL 12600042
.*                                 ENTRIES. LASTLY IT DETERMINES THE    12700042
.*                                 NUMBER OF ENTRIES ASSOCIATED WITH    12800042
.*                                 THE PREVIOUS LINE AND STORES THAT #  12900042
.*                                 INTO THE APPROPRIATE BYTE.           13000042
.*                            &DATA(1) - CHARACTER POSITION TO BEGIN    13100042
.*                                 DATA.                                13200042
.*                            &DATA(2) - # OF SPACES BETWEEN SUCCESSIVE 13300042
.*                                 DATA COLUMN STARTING CHARACTERS.     13400042
.*                            &LABEL(1) - CHAR. POS. TO BEGIN LABELS.   13500042
.*                            &LABEL(2) - # SPACES BETWEEN LINE'S LABEL 13600042
.*                                 STARTING CHARACTERS.                 13700042
.*                            &SKIP= - # OF LINES TO ADVANCE CARRIAGE   13800042
.*                                 TO BEGIN NEXT PRINTED LINE.          13900042
.*                            NEW ENTRIES ARE GENERATED ONLY WHEN       14000042
.*                                 NECESSARY. OMISSION OF ITEMS MEANS   14100042
.*                                 THEY HAVE NOT CHANGED SINCE PREVIOUS 14200042
.*                                 SETTINGS. A LINE MACRO IS REQUIRED   14300042
.*                                 FOR EACH PRINTED LINE. IF NO SETTING 14400042
.*                                 CHANGES ARE REQUIRED ALL OPERANDS    14500042
.*                                 ARE OMITTED IN WHICH CASE ONLY THE   14600042
.*                                 # OF ENTRIES FOR THE PREVIOUS LINE   14700042
.*                                 IS COMPUTED. THIS MACRO MUST BE THE  14800042
.*                                 FIRST MACRO INSTRUCTION ISSUED FOR   14900042
.*                                 THE SUBJECT LINE                     15000042
         GBLA  &DB,&DT,&LB,&LT,&NRENTS                                  15100042
         GBLA  &LASTCC,&INITIAL                                         15200042
         GBLC  &NRENTSX                                                 15300042
         GBLC  &CARRCON                                                 15400042
         GBLB  &TEST                                                    15500042
         LCLA  &S                                                       15600042
&NAME    DS    0C                                                       15700042
         AIF   (&INITIAL EQ 0).FIRSTLN                                  15800042
         LINEND                                                         15900042
         AGO   .NTFIRST                                                 16000042
.FIRSTLN ANOP                                                           16100042
&NRENTSX SETC  'N&SYSNDX'                                               16200042
&INITIAL SETA  1                                                        16300042
N&SYSNDX EQU   *                                                        16400042
.NTFIRST ANOP                                                           16500042
         DC    AL1(0)                                                   16600042
         AIF   ('&DATA(1)' EQ '').CKDTABS                               16700042
         AIF   (&DATA(1) EQ &DB).CKDTABS                                16800042
&DB      SETA  &DATA(1)                                                 16900042
         AGO   .AA                                                      17000042
.CKDTABS AIF   ('&DATA(2)' EQ '').NCDATA                                17100042
         AIF   (&DATA(2) EQ &DT).NCDATA                                 17200042
         AGO   .CC                                                      17300042
.AA      AIF   ('&DATA(2)' EQ '').BB                                    17400042
         AIF   (&DATA(2) EQ &DT).BB                                     17500042
.CC      ANOP                                                           17600042
&DT      SETA  &DATA(2)                                                 17700042
.BB      DC    XL2'FFFE'                                                17800042
         DC    FL1'&DB'                                                 17900042
         DC    FL1'&DT'                                                 18000042
&NRENTS  SETA  &NRENTS+1                                                18100042
.NCDATA  ANOP                                                           18200042
         AIF   ('&LABEL(1)' EQ '').CKLTABS                              18300042
         AIF   (&LABEL(1) EQ &LB).CKLTABS                               18400042
&LB      SETA  &LABEL(1)                                                18500042
         AGO   .AAA                                                     18600042
.CKLTABS AIF   ('&LABEL(2)' EQ '').NCLABEL                              18700042
         AIF   (&LABEL(2) EQ &LT).NCLABEL                               18800042
         AGO   .CCC                                                     18900042
.AAA     AIF   ('&LABEL(2)' EQ '').BBB                                  19000042
         AIF   (&LABEL(2) EQ &LT).BBB                                   19100042
.CCC     ANOP                                                           19200042
&LT      SETA  &LABEL(2)                                                19300042
.BBB     DC    XL2'FFFF'                                                19400042
         DC    FL1'&LB'                                                 19500042
         DC    FL1'&LT'                                                 19600042
&NRENTS  SETA  &NRENTS+1                                                19700042
.NCLABEL ANOP                                                           19800042
         AIF   ('&SKIP' NE '').CONT                                     19900042
         AIF   (&TEST EQ 0).NOCHANG                                     20000042
&S       SETA  &LASTCC                                                  20100042
         AGO   .DEFAULT                                                 20200042
.CONT    ANOP                                                           20300042
         AIF   (&TEST EQ 0).AB                                          20400042
&S       SETA  &SKIP                                                    20500042
.DEFAULT ANOP                                                           20600042
         ORG   &CARRCON+3                                               20700042
         DC    AL.3(0),AL.2(&S),AL.3(1)                                 20800042
         ORG                                                            20900042
&LASTCC  SETA  &S                                                       21000042
&TEST    SETB  0                                                        21100042
         AGO   .DD                                                      21200042
.AB      AIF   (&SKIP EQ &LASTCC).NOCHANG                               21300042
A&SYSNDX DC    XL2'FFFB'                                                21400042
         DC    AL.3(0),AL.2(&SKIP),AL.3(1)                              21500042
         DC    FL1'9'                                                   21600042
&LASTCC  SETA  &SKIP                                                    21700042
&TEST    SETB  1                                                        21800042
&CARRCON SETC  'A&SYSNDX'                                               21900042
&NRENTS  SETA  &NRENTS+1                                                22000042
.DD      ANOP                                                           22100042
.NOCHANG ANOP                                                           22200042
         MEND                                                           22300042
         EJECT                                                          22400042
*  BIN MACRO     BIN MACRO     BIN MACRO     BIN MACRO     BIN MACRO  * 22500042
         SPACE 2                                                        22600042
         MACRO                                                          22700042
         BIN   &LOGITEM,&SKIP$OR                                        22800042
.*                                 &LOGITEM - NAME OF ITEM IN LOG       22900042
.*                                      RECORD DSECT                    23000042
.*                                 &SKIP$OR - NBR OF SPACES TO SKIP ON  23100042
.*                                 MULTIPLE PRINT OR NBR OF SPACES      23200042
.*                                      TO BACK UP FROM COLUMN FOR      23300042
.*                                      START OF PRINTING. THE LETTER   23400042
.*                                      B PRECEEDS THE NUMBER (B5) IF   23500042
.*                                      THE LATTER IS DESIRED. OMISSION 23600042
.*                                      OF THIS OPERAND FORCES OPTION 2 23700042
.*                                      WITH BACKUP SPACING EQUAL TO    23800042
.*                                 THE NUMBER OF BITS IN THE ITEM       23900042
.*                                 DEFINITION (VIA MACRO 'DSGEN').      24000042
.*                            A LIMIT OF 15 BITS IS IMPOSED FOR THE     24100042
.*                                 TOTAL NUMBER OF BITS TO PRINT.       24200042
         GBLC &ITEM(1000)                                               24300042
         GBLA &ITEMNBR,&BITS(1000),&SHIFT(1000),&NRENTS                 24400042
         GBLC  &DSECT                                                   24500042
         LCLB  &B                                                       24600042
         LCLA  &IBITS,&NDX,&ISHIFT,&K                                   24700042
         LCLA  &TEMP,&T                                                 24800042
         LCLC  &S                                                       24900042
.LOOP    ANOP                                                           25000042
&NDX     SETA  &NDX+1                                                   25100042
         AIF   ('&ITEM(&NDX)' EQ '&LOGITEM').FOUND                      25200042
         AIF   (&NDX LT &ITEMNBR).LOOP                                  25300042
         MNOTE *,'YOU BLEW IT'                                          25400042
         ROUTINE DUM,SKIPPER                                            25500042
         MEXIT                                                          25600042
.FOUND   ANOP                                                           25700042
&ISHIFT  SETA  &SHIFT(&NDX)                                             25800042
&IBITS   SETA  &BITS(&NDX)                                              25900042
&T       SETA  &IBITS-1                                                 26000042
&B       SETB  0                                                        26100042
         AIF   ('&SKIP$OR' EQ '').BACKUP                                26200042
&K       SETA  K'&SKIP$OR                                               26300042
&B       SETB  ('&SKIP$OR'(1,1) EQ 'B')                                 26400042
&S       SETC  '&SKIP$OR'(&B+1,&K-&B)                                   26500042
&T       SETA  &S                                                       26600042
.BACKUP  ANOP                                                           26700042
&NRENTS  SETA  &NRENTS+1                                                26800042
&TEMP    SETA  &ISHIFT                                                  26900042
A&SYSNDX DC    AL.12(&LOGITEM-&DSECT),XL.4'&TEMP'                       27000042
         AIF (&IBITS EQ 1 AND &B EQ 0).OUT                              27100042
         ORG   A&SYSNDX                                                 27200042
&B       SETB  1                                                        27300042
         DC    AL.12(&LOGITEM-&DSECT),XL.4'C'                           27400042
         DC    BL.1'&B',AL.7(&T),AL.4(&IBITS),FL.4'&ISHIFT'             27500042
.OUT     ANOP                                                           27600042
         MEND                                                           27700042
         EJECT                                                          27800042
*  HEX MACRO     HEX MACRO     HEX MACRO    HEXN MACRO     HEX MACRO  * 27900042
         SPACE 2                                                        28000042
         MACRO                                                          28100042
         HEX   &LOGITEM,&SKIP$OR,&BYTES                                 28200042
.*                            THIS MACRO FACILITATES GENERATION OF THE  28300042
.*                                 TABLE ENTRIES SPECIFYING HEX TYPE    28400042
.*                                 CONVERSIONS.                         28500042
.*                            &LOGITEM - NAME OF DATA ITEM TO BE        28600042
.*                                 CONVERTED                            28700042
.*                            &SKIP$OR - NUMBER OF SPACES TO SKIP ON    28800042
.*                                 MULTIPLE PRINT OR NBR OF SPACES TO   28900042
.*                                 BACK UP FROM COLUMN FOR START OF     29000042
.*                                 PRINTING. THE LETTER B PRECEEDS THE  29100042
.*                                 NUMBER (B8) IF THE LATTER OPTION IS  29200042
.*                                 DESIRED. OMISSION OF THIS OPERAND    29300042
.*                                 FORCES OPTION 2 WITH BACKUP SPACING  29400042
.*                                 EQUAL TO THE NUMBER OF BYTES SPECI-  29500042
.*                                 FIED BY THE NEXT OPERAND (TWICE THIS 29600042
.*                                 NUMBER IF SUFFIX IS EXPLICITLY OR    29700042
.*                                 IMPLICITLY B).                       29800042
.*                            &BYTES - NUMBER OF TOTAL INPUT BYTES TO   29900042
.*                                 PROCESS. THIS NUMBER IS SUFFIXED     30000042
.*                                 WITH AN L,R, OR B TO STIPULATE       30100042
.*                                 PRINTING OF THE LEFT HALF, RIGHT     30200042
.*                                 HALF, OR BOTH HALVES OF THE BYTE     30300042
.*                                 RESPECTIVELY. OMISSION OF THIS       30400042
.*                                 OPERAND DEFAULTS TO B WITH THE NUM-  30500042
.*                                 BER OF BYTES EQUAL TO THE ITEM LNGTH 30600042
.*                            A NEW ENTRY IS GENERATED ONLY WHEN NECES- 30700042
.*                                 SARY. THIS MACRO MUST BE THE FIRST   30800042
.*                                 MACRO INSTRUCTION ISSUED FOR THE     30900042
.*                                 SUBJECT LINE(S).                     31000042
         GBLC &ITEM(1000),&DSECT                                        31100042
         GBLA &ITEMNBR,&BITS(1000),&SHIFT(1000),&NRENTS                 31200042
         LCLB  &B                                                       31300042
         LCLA  &IBITS,&NDX,&ISHIFT,&K,&T,&CODE,&BYTESP                  31400042
         LCLC  &S,&LETTER                                               31500042
.LOOP    ANOP                                                           31600042
&NDX     SETA  &NDX+1                                                   31700042
         AIF   ('&ITEM(&NDX)' EQ '&LOGITEM').FOUND                      31800042
         AIF   (&NDX LT &ITEMNBR).LOOP                                  31900042
         MNOTE *,'LOG ITEM NOT DEFINED'                                 32000042
         MEXIT                                                          32100042
.FOUND   ANOP                                                           32200042
&ISHIFT  SETA  &SHIFT(&NDX)                                             32300042
&IBITS   SETA  &BITS(&NDX)                                              32400042
&CODE    SETA  1                                                        32500042
&K       SETA  K'&BYTES                                                 32600042
         AIF   (&IBITS-(&IBITS/4)*4 EQ 0).OK                            32700042
         MNOTE *,'BIT LENGTH SPECIFICATION INCONSISTENT WITH CONTROL'   32800042
         MEXIT                                                          32900042
.OK      AIF   ('&BYTES' EQ '').USEDEFN                                 33000042
&LETTER  SETC  '&BYTES'(&K,1)                                           33100042
&S       SETC  '&BYTES'(1,&K-1)                                         33200042
&BYTESP  SETA  &S                                                       33300042
         AIF   ('&LETTER' EQ 'B').BOTH                                  33400042
         AIF   (&ISHIFT EQ 0 OR &ISHIFT EQ 4).OK2                       33500042
.ERR     MNOTE *,'DATA NOT ALLIGNED ON HEX OR BYTE BOUNDARY'            33600042
         MEXIT                                                          33700042
.USEDEFN ANOP                                                           33800042
&BYTESP  SETA  &IBITS/8                                                 33900042
.BOTH    AIF   (&ISHIFT NE 0).ERR                                       34000042
&CODE    SETA  3                                                        34100042
&T       SETA  &BYTESP*2-1                                              34200042
&S       SETC  '&T'                                                     34300042
.OK2     AIF   (&ISHIFT EQ 0).L                                         34400042
&CODE    SETA  2                                                        34500042
.L       ANOP                                                           34600042
&B       SETB  1                                                        34700042
         AIF   ('&SKIP$OR' EQ '').BACKUP                                34800042
&K       SETA  K'&SKIP$OR                                               34900042
&B       SETB  ('&SKIP$OR'(1,1) EQ 'B')                                 35000042
&S       SETC  '&SKIP$OR'(&B+1,&K-&B)                                   35100042
.BACKUP  ANOP                                                           35200042
&NRENTS  SETA  &NRENTS+1                                                35300042
         DC    AL.12(&LOGITEM-&DSECT),XL.4'A'                           35400042
         DC    BL.1'&B',FL.7'&S',FL.4'&BYTESP',FL.4'&CODE'              35500042
.OUT     ANOP                                                           35600042
         MEND                                                           35700042
         SPACE 2                                                        35800042
*  ROUTINE MACRO     ROUTINE MACRO     ROUTINE MACRO     ROUTINE MACRO* 35900042
         SPACE 2                                                        36000042
         MACRO                                                          36100042
&NAME    ROUTINE &LOGITEM,&RNAME                                        36200042
         GBLC  &DSECT,&CSECT                                            36300042
         GBLC  &ITEM(1000)                                              36400042
         GBLA  &SHIFT(1000),&ITEMNBR                                    36500042