         TITLE 'I F C E M E R 4 - I F C E M E R 4 - I F C E M E R 4'    00060002
*  DSGEN MACRO     DSGEN MACRO     DSGEN MACRO     DSGEN MACRO        * 00120002
         SPACE 2                                                        00240002
         MACRO                                                          00360002
&NAME    DSGEN &X1,&X2,&X3,&X4,&X5,&X6,&X7,&X8,&X9,&X10,&X11,&X12,&X13,X00480002
               &X14,&X15,&X16,&X17,&X18,&X19,&X20,&X21,&X22,&X23,&X24, X00600002
               &X25,&X26,&X27,&X28,&X29,&X30,&X31,&X32                  00720002
.*                            THIS MACRO GENERATES ONE DSECT WORD       00840002
.*                                 FORMATTED FOR THE SUBJECT LOG RECORD 00960002
.*                                 EACH OPERAND HAS TWO SUB LISTS. THE  01080002
.*                                 FIRST IS THE NAME OF THE LOG ITEM    01200002
.*                                 WHILE THE SECOND IS THE # OF BITS TO 01320002
.*                                 ALLOCATE FOR THIS ITEM. ITEMS MUST   01440002
.*                                 BE DEFINED CONTIGUOUSLY WITHOUT GAPS 01560002
.*                                 UNUSED BIT GROUPS MUST BE GIVEN      01680002
.*                                 DUMMY NAMES. THE NAMES PROVIDED FOR  01800002
.*                                 THE LOG ITEMS MAY THEN BE USED IN    01920002
.*                                 THE CONVERSION MACRO INSTRUCTIONS.   02040002
         GBLC &ITEM(1000)                                               02160002
         GBLA &ITEMNBR,&BITS(1000),&SHIFT(1000)                         02280002
         LCLC  &SYMBOL                                                  02400002
         LCLA  &OP,&COUNT,&BYTE                                         02520002
.LOOP    ANOP                                                           02640002
&OP      SETA  &OP+1                                                    02760002
&ITEMNBR SETA  &ITEMNBR+1                                               02880002
&SYMBOL  SETC  '&SYSLIST(&OP,1)'                                        03000002
         AIF   ('&SYSLIST(&OP,2)' NE '').OK1                            03120002
         MNOTE *,'NULL BIT COUNT FIELD'                                 03240002
         MEXIT                                                          03360002
.OK1     ANOP                                                           03480002
         AIF   ('&SYMBOL' NE '').OK                                     03600002
         MNOTE 'LOG ITEM SYMBOL NOT PROVIDED'                           03720002
         AGO   .CNT                                                     03840002
.OK      ANOP                                                           03960002
         AIF   ('&SYMBOL'(1,1) EQ '''').CNT                *TEMP*       04080002
&SYMBOL  EQU   *+&BYTE                                                  04200002
&ITEM(&ITEMNBR)  SETC '&SYSLIST(&OP,1)'                                 04320002
&BITS(&ITEMNBR) SETA &SYSLIST(&OP,2)                                    04440002
&SHIFT(&ITEMNBR) SETA &COUNT-&BYTE*8                                    04560002
.CNT     ANOP                                                           04680002
&COUNT   SETA  &COUNT+&SYSLIST(&OP,2)                                   04800002
&BYTE    SETA  &COUNT/8                                                 04920002
         AIF (&OP LT N'&SYSLIST).LOOP                                   05040002
         AIF   (&COUNT NE 32).NOT32                                     05160002
&NAME    DS    4C                                                       05280002
         MEXIT                                                          05400002
.NOT32   AIF   (&COUNT NE 64).ERR                                       05520002
&NAME    DS    8C                                                       05640002
         MEXIT                                                          05760002
.ERR     MNOTE '**BIT COUNT FIELDS DO NOT TOTAL 32 OR 64**'             05880002
         MEND                                                           06000002
         EJECT                                                          06120002
*  LINE MACRO     LINE MACRO     LINE MACRO     LINE MACRO            * 06240002
         SPACE 2                                                        06360002
         MACRO                                                          06480002
&NAME    LINE  &DATA,&LABEL,&SKIP=                                      06580002
.*                            THIS MACRO ESTABLISHES THE MARGINS OR     06680002
.*                                 COLUMN SETTINGS FOR EACH LINE. IT    06780002
.*                                 GENERATES NECESSARY CARRIAGE CONTROL 06880002
.*                                 ENTRIES. LASTLY IT DETERMINES THE    06980002
.*                                 NUMBER OF ENTRIES ASSOCIATED WITH    07080002
.*                                 THE PREVIOUS LINE AND STORES THAT #  07180002
.*                                 INTO THE APPROPRIATE BYTE.           07280002
.*                            &DATA(1) - CHARACTER POSITION TO BEGIN    07380002
.*                                 DATA.                                07480002
.*                            &DATA(2) - # OF SPACES BETWEEN SUCCESSIVE 07580002
.*                                 DATA COLUMN STARTING CHARACTERS.     07680002
.*                            &LABEL(1) - CHAR. POS. TO BEGIN LABELS.   07780002
.*                            &LABEL(2) - # SPACES BETWEEN LINE'S LABEL 07880002
.*                                 STARTING CHARACTERS.                 07980002
.*                            &SKIP= - # OF LINES TO ADVANCE CARRIAGE   08080002
.*                                 TO BEGIN NEXT PRINTED LINE.          08180002
.*                            NEW ENTRIES ARE GENERATED ONLY WHEN       08280002
.*                                 NECESSARY. OMISSION OF ITEMS MEANS   08380002
.*                                 THEY HAVE NOT CHANGED SINCE PREVIOUS 08480002
.*                                 SETTINGS. A LINE MACRO IS REQUIRED   08580002
.*                                 FOR EACH PRINTED LINE. IF NO SETTING 08680002
.*                                 CHANGES ARE REQUIRED ALL OPERANDS    08780002
.*                                 ARE OMITTED IN WHICH CASE ONLY THE   08880002
.*                                 # OF ENTRIES FOR THE PREVIOUS LINE   08980002
.*                                 IS COMPUTED. THIS MACRO MUST BE THE  09080002
.*                                 FIRST MACRO INSTRUCTION ISSUED FOR   09180002
.*                                 THE SUBJECT LINE                     09280002
         GBLA  &DB,&DT,&LB,&LT,&NRENTS                                  09380002
         GBLA  &LASTCC,&INITIAL                                         09480002
         GBLC  &NRENTSX                                                 09580002
         GBLC  &CARRCON                                                 09680002
         GBLB  &TEST                                                    09780002
         GBLB  &DIAGTST,&DIAGSET,&DIAGLIN                               09880002
         LCLA  &S                                                       09980002
         AIF   (&INITIAL EQ 0 OR &DIAGTST EQ 0).DIAGSET                 10080002
         AIF   (&DIAGSET EQ 0).DIAGSET                                  10180002
         MNOTE '**NO LABEL ASSOCIATED WITH LAST SET**'                  10280002
***** THE FOLLOWING GENERATED FOR TEST PURPOSES *****                   10380002
*        LABEL '%%%%%%%%%%%%%%%%%%%%%%%%%%%%%%%%%%%%%%%%%%%%%%%%'       10480002
               LABEL '%%%%%%%%%%%%%%%%%%%%%%%%%%%%%%%%%%%%%%%%%%%%%%%%' 10580002
.DIAGSET ANOP                                                           10680002
&DIAGSET SETB  1                                                        10780002
&DIAGLIN SETB  1                                                        10880002
&NAME    DS    0C                                                       10980002
         AIF   (&INITIAL EQ 0).FIRSTLN                                  11080002
         LINEND                                                         11180002
         AGO   .NTFIRST                                                 11280002
.FIRSTLN ANOP                                                           11380002
&NRENTSX SETC  'N&SYSNDX'                                               11480002
&INITIAL SETA  1                                                        11580002
N&SYSNDX EQU   *                                                        11680002
.NTFIRST ANOP                                                           11780002
         DC    AL1(0)                                                   11880002
         AIF   ('&DATA(1)' EQ '').CKDTABS                               11980002
         AIF   (&DATA(1) EQ &DB).CKDTABS                                12080002
&DB      SETA  &DATA(1)                                                 12180002
         AGO   .AA                                                      12280002
.CKDTABS AIF   ('&DATA(2)' EQ '').NCDATA                                12380002
         AIF   (&DATA(2) EQ &DT).NCDATA                                 12480002
         AGO   .CC                                                      12580002
.AA      AIF   ('&DATA(2)' EQ '').BB                                    12680002
         AIF   (&DATA(2) EQ &DT).BB                                     12780002
.CC      ANOP                                                           12880002
&DT      SETA  &DATA(2)                                                 12980002
.BB      DC    XL2'FFFE'                                                13080002
         DC    FL1'&DB'                                                 13180002
         DC    FL1'&DT'                                                 13280002
&NRENTS  SETA  &NRENTS+1                                                13380002
.NCDATA  ANOP                                                           13480002
         AIF   ('&LABEL(1)' EQ '').CKLTABS                              13580002
         AIF   (&LABEL(1) EQ &LB).CKLTABS                               13680002
&LB      SETA  &LABEL(1)                                                13780002
         AGO   .AAA                                                     13880002
.CKLTABS AIF   ('&LABEL(2)' EQ '').NCLABEL                              13980002
         AIF   (&LABEL(2) EQ &LT).NCLABEL                               14080002
         AGO   .CCC                                                     14180002
.AAA     AIF   ('&LABEL(2)' EQ '').BBB                                  14280002
         AIF   (&LABEL(2) EQ &LT).BBB                                   14380002
.CCC     ANOP                                                           14480002
&LT      SETA  &LABEL(2)                                                14580002
.BBB     DC    XL2'FFFF'                                                14680002
         DC    FL1'&LB'                                                 14780002
         DC    FL1'&LT'                                                 14880002
&NRENTS  SETA  &NRENTS+1                                                14980002
.NCLABEL ANOP                                                           15080002
         AIF   ('&SKIP' NE '').CONT                                     15180002
         AIF   (&TEST EQ 0).NOCHANG                                     15280002
         AGO   .DEFALTA                                                 15380002
.CONT    ANOP                                                           15480002
         AIF   (&TEST EQ 0).AB                                          15580002
         AIF   ('&SKIP' EQ 'E').AB                                      15680002
&S       SETA  &SKIP                                                    15780002
.DEFAULT ANOP                                                           15880002
         AIF   (&SKIP EQ &LASTCC).DEFALTA                               15980002
         ORG   &CARRCON+3                                               16080002
         DC    AL.3(0),AL.2(&S),AL.3(1)                                 16180002
         ORG                                                            16280002
&LASTCC  SETA  &S                                                       16380002
.DEFALTA ANOP                                                           16480002
&TEST    SETB  0                                                        16580002
         AGO   .DD                                                      16680002
.AB      AIF   ('&SKIP' NE 'E').ABB                                     16780002
A&SYSNDX DC    X'FFFB8B00'              EJECT                           16880002
         AGO   .ABC                                                     16980002
.ABB     AIF   (&SKIP EQ &LASTCC).NOCHANG                               17080002
A&SYSNDX DC    XL2'FFFB'                                                17180002
         DC    AL.3(0),AL.2(&SKIP),AL.3(1)                              17280002
         DC    AL.3(0),AL.2(&SKIP),AL.3(1)                              17380002
&LASTCC  SETA  &SKIP                                                    17480002
&TEST    SETB  1                                                        17580002
.ABC     ANOP                                                           17680002
&CARRCON SETC  'A&SYSNDX'                                               17780002
&NRENTS  SETA  &NRENTS+1                                                17880002
.DD      ANOP                                                           17980002
.NOCHANG ANOP                                                           18080002
         MEND                                                           18180002
         EJECT                                                          18720002
*  BIN MACRO     BIN MACRO     BIN MACRO     BIN MACRO     BIN MACRO  * 18840002
         SPACE 2                                                        18960002
         MACRO                                                          19080002
         BIN                                                            19140002
.*                                 &SYSLIST(&OP,1) - NAME OF LOG ITEM   19200002
.*                                      RECORD DSECT                    19260002
.*                                 $SYSLIST(&OP,2) - NBR OF SPACES      19320002
.*                                      TO SKIP ON MULTIPLE             19380002
.*                                      PRINT OR NBR OF SPACES          19440002
.*                                      TO BACK UP FROM COLUMN FOR      19500002
.*                                      START OF PRINTING. THE LETTER   19560002
.*                                      B PRECEEDS THE NUMBER (B5) IF   19620002
.*                                      THE LATTER IS DESIRED. OMISSION 19680002
.*                                      OF THIS OPERAND FORCES OPTION 2 19740002
.*                                      WITH BACKUP SPACING EQUAL TO    19800002
.*                                 THE NUMBER OF BITS IN THE ITEM       19860002
.*                                 DEFINITION (VIA MACRO 'DSGEN').      19920002
.*                            A LIMIT OF 15 BITS IS IMPOSED FOR THE     19980002
.*                                 TOTAL NUMBER OF BITS TO PRINT.       20040002
         GBLA  &INITIAL                                                 20100002
         GBLB  &DIAGTST,&DIAGSET,&DIAGLIN                               20160002
         GBLC  &ITEM(1000),&DSECT                                       20220002
         GBLA  &BITS(1000),&ITEMNBR,&SHIFT(1000),&NRENTS                20280002
         LCLB  &B,&SUB                                                  20340002
         LCLA  &IBITS,&NDX,&ISHIFT,&K                                   20400002
         LCLA  &TEMP,&T,&OP                                             20460002
         LCLC  &S                                                       20520002
         ACTR  500000                                                   20580002
         AIF   (&DIAGTST EQ 0).NOMSG                                    20640002
         AIF   (&INITIAL EQ 0).NOMSG                                    20700002
         AIF   (&DIAGLIN EQ 1).NOMSG                                    20760002
         MNOTE '**NO LINE ASSOCIATED WITH THIS DATA**'                  20820002
*****THE FOLLOWING GENERATED FOR TEST PURPOSES*****                     20880002
*        LINE                                                           20940002
         LINE                                                           21000002
.NOMSG   ANOP                                                           21060002
         AIF   (K'&SYSLIST(1) EQ K'&SYSLIST(1,1)).LOOP                  21120002
&SUB     SETB  1                                                        21180002
.LOOP    ANOP                                                           21240002
&OP      SETA  &OP+1                                                    21300002
.LOOP1   ANOP                                                           21360002
&NDX     SETA  &NDX+1                                                   21420002
         AIF   ('&ITEM(&NDX)' EQ '&SYSLIST(&OP,1)').FOUND               21480002
         AIF   (&NDX LT &ITEMNBR).LOOP1                                 21540002
         MNOTE '**LOG ITEM NOT DEFINED**'                               21600002
         MEXIT                                                          21660002
.FOUND   ANOP                                                           21720002
&ISHIFT  SETA  &SHIFT(&NDX)                                             21780002
&IBITS   SETA  &BITS(&NDX)                                              21840002
         AIF   (&SUB EQ 1).SUB00                                        21900002
         AIF   ('&SYSLIST(3)' EQ '').SETT                               21960002
&IBITS   SETA  &SYSLIST(3)                                              22020002
         AGO   .SETT                                                    22080002
.SUB00   AIF   ('&SYSLIST(&OP,3)' EQ '').SETT                           22140002
&IBITS   SETA  &SYSLIST(&OP,3)                                          22200002
.SETT    ANOP                                                           22260002
&T       SETA  &IBITS-1                                                 22320002
&B       SETB  0                                                        22380002
         AIF   (&IBITS GT 0 AND &IBITS LT 16).SUB0                      22440002
         MNOTE '**NO. OF BITS OUTSIDE RANGE OF 1-15**'                  22500002
         MEXIT                                                          22560002
.SUB0    AIF   (&SUB EQ 1).SUBA                                         22620002
         AIF   ('&SYSLIST(2)' EQ '').BACKUP                             22680002
&K       SETA  K'&SYSLIST(2)                                            22740002
&B       SETB  ('&SYSLIST(2)'(1,1) EQ 'B')                              22800002
&S       SETC  '&SYSLIST(2)'(&B+1,&K-&B)                                22860002
         AGO   .SUBB                                                    22920002
.SUBA    ANOP                                                           22980002
         AIF   ('&SYSLIST(&OP,2)' EQ '').BACKUP                         23040002
&K       SETA  K'&SYSLIST(&OP,2)                                        23100002
&B       SETB  ('&SYSLIST(&OP,2)'(1,1) EQ 'B')                          23160002
&S       SETC  '&SYSLIST(&OP,2)'(&B+1,&K-&B)                            23220002
.SUBB    ANOP                                                           23280002
&T       SETA  &S                                                       23340002
.BACKUP  ANOP                                                           23400002
&NRENTS  SETA  &NRENTS+1                                                23460002
&TEMP    SETA  &ISHIFT                                                  23520002
         AIF   (&IBITS NE 1 OR &B NE 0).BIN2                            23580002
         DC    AL.12(&SYSLIST(&OP,1)-&DSECT),XL.4'&TEMP'                23640002
         AGO   .OUT                                                     23700002
.BIN2    AIF   (&SUB EQ 1).BIN2A                                        23760002
         AIF   ('&SYSLIST(2)' NE '').BIN3                               23820002
         AGO   .BIN2B                                                   23880002
.BIN2A   AIF   ('&SYSLIST(&OP,2)' NE '').BIN3                           23940002
.BIN2B   ANOP                                                           24000002
&B       SETB  1                                                        24060002
.BIN3    ANOP                                                           24120002
         DC    AL.12(&SYSLIST(&OP,1)-&DSECT),XL.4'C'                    24180002
         DC    BL.1'&B',AL.7(&T),AL.4(&IBITS),FL.4'&ISHIFT'             24240002
.OUT     ANOP                                                           24300002
&NDX     SETA  0                                                        24360002
         AIF   (&SUB EQ 0).OUTA                                         24420002
         AIF   (&OP LT N'&SYSLIST).LOOP                                 24480002
.OUTA    ANOP                                                           24540002
         MEND                                                           24600002
         EJECT                                                          25200002
*  HEX MACRO     HEX MACRO     HEX MACRO    HEXN MACRO     HEX MACRO  * 25320002
         SPACE 2                                                        25440002
         MACRO                                                          25560002
         HEX   &LOGITEM,&SKIP$OR,&BYTES                                 25680002
.*                            THIS MACRO FACILITATES GENERATION OF THE  25800002
.*                                 TABLE ENTRIES SPECIFYING HEX TYPE    25920002
.*                                 CONVERSIONS.                         26040002
.*                            &LOGITEM - NAME OF DATA ITEM TO BE        26160002
.*                                 CONVERTED                            26280002
.*                            &SKIP$OR - NUMBER OF SPACES TO SKIP ON    26400002
.*                                 MULTIPLE PRINT OR NBR OF SPACES TO   26520002
.*                                 BACK UP FROM COLUMN FOR START OF     26640002
.*                                 PRINTING. THE LETTER B PRECEEDS THE  26760002
.*                                 NUMBER (B8) IF THE LATTER OPTION IS  26880002
.*                                 DESIRED. OMISSION OF THIS OPERAND    27000002
.*                                 FORCES OPTION 2 WITH BACKUP SPACING  27120002
.*                                 EQUAL TO THE NUMBER OF BYTES SPECI-  27240002
.*                                 FIED BY THE NEXT OPERAND (TWICE THIS 27360002
.*                                 NUMBER IF SUFFIX IS EXPLICITLY OR    27480002
.*                                 IMPLICITLY B).                       27600002
.*                            &BYTES - NUMBER OF TOTAL INPUT BYTES TO   27720002
.*                                 PROCESS. THIS NUMBER IS SUFFIXED     27840002
.*                                 WITH AN L,R, OR B TO STIPULATE       27960002
.*                                 PRINTING OF THE LEFT HALF, RIGHT     28080002
.*                                 HALF, OR BOTH HALVES OF THE BYTE     28200002
.*                                 RESPECTIVELY. OMISSION OF THIS       28320002
.*                                 OPERAND DEFAULTS TO B WITH THE NUM-  28440002
.*                                 BER OF BYTES EQUAL TO THE ITEM LNGTH 28560002
.*                            A NEW ENTRY IS GENERATED ONLY WHEN NECES- 28680002
.*                                 SARY. THIS MACRO MUST BE THE FIRST   28800002
.*                                 MACRO INSTRUCTION ISSUED FOR THE     28920002
.*                                 SUBJECT LINE(S).                     29040002
         GBLC &ITEM(1000),&DSECT                                        29160002
         GBLA &ITEMNBR,&BITS(1000),&SHIFT(1000),&NRENTS                 29280002
         LCLB  &B                                                       29400002
         LCLA  &IBITS,&NDX,&ISHIFT,&K,&T,&CODE,&BYTESP                  29520002
         LCLC  &S,&LETTER                                               29640002
.LOOP    ANOP                                                           29760002
&NDX     SETA  &NDX+1                                                   29880002
         AIF   ('&ITEM(&NDX)' EQ '&LOGITEM').FOUND                      30000002
         AIF   (&NDX LT &ITEMNBR).LOOP                                  30120002
         MNOTE *,'LOG ITEM NOT DEFINED'                                 30240002
         MEXIT                                                          30360002
.FOUND   ANOP                                                           30480002
&ISHIFT  SETA  &SHIFT(&NDX)                                             30600002
&IBITS   SETA  &BITS(&NDX)                                              30720002
&CODE    SETA  1                                                        30840002
&K       SETA  K'&BYTES                                                 30960002
         AIF   (&IBITS-(&IBITS/4)*4 EQ 0).OK                            31080002
         MNOTE *,'BIT LENGTH SPECIFICATION INCONSISTENT WITH CONTROL'   31200002
         MEXIT                                                          31320002
.OK      AIF   ('&BYTES' EQ '').USEDEFN                                 31440002
&LETTER  SETC  '&BYTES'(&K,1)                                           31560002
&S       SETC  '&BYTES'(1,&K-1)                                         31680002
&BYTESP  SETA  &S                                                       31800002
         AIF   ('&LETTER' EQ 'B').BOTH                                  31920002
         AIF   (&ISHIFT EQ 0 OR &ISHIFT EQ 4).OK2                       32040002
.ERR     MNOTE *,'DATA NOT ALLIGNED ON HEX OR BYTE BOUNDARY'            32160002
         MEXIT                                                          32280002
.USEDEFN ANOP                                                           32400002
&BYTESP  SETA  &IBITS/8                                                 32520002
.BOTH    AIF   (&ISHIFT NE 0).ERR                                       32640002
&CODE    SETA  3                                                        32760002
&T       SETA  &BYTESP*2-1                                              32880002
&S       SETC  '&T'                                                     33000002
.OK2     AIF   (&ISHIFT EQ 0).L                                         33120002
&CODE    SETA  2                                                        33240002
.L       ANOP                                                           33360002
&B       SETB  1                                                        33480002
         AIF   ('&SKIP$OR' EQ '').BACKUP                                33600002
&K       SETA  K'&SKIP$OR                                               33720002
&B       SETB  ('&SKIP$OR'(1,1) EQ 'B')                                 33840002
&S       SETC  '&SKIP$OR'(&B+1,&K-&B)                                   33960002
.BACKUP  ANOP                                                           34080002
&NRENTS  SETA  &NRENTS+1                                                34200002
         DC    AL.12(&LOGITEM-&DSECT),XL.4'A'                           34320002
         DC    BL.1'&B',FL.7'&S',FL.4'&BYTESP',FL.4'&CODE'              34440002
.OUT     ANOP                                                           34560002
         MEND                                                           34680002
         SPACE 2                                                        34800002
*  ROUTINE MACRO     ROUTINE MACRO     ROUTINE MACRO     ROUTINE MACRO* 34920002
         SPACE 2                                                        35040002
         MACRO                                                          35160002
&NAME    ROUTINE &LOGITEM,&RNAME                                        35280002
         GBLC  &DSECT,&CSECT                                            35400002
         GBLC  &ITEM(1000)                                              35520002
         GBLA  &SHIFT(1000),&ITEMNBR                                    35640002
         GBLA  &NRENTS                                                  35760002
         LCLA  &ISHIFT,&NDX                                             35880002
.LOOP    ANOP                                                           36000002
&NDX     SETA  &NDX+1                                                   36120002
         AIF   ('&ITEM(&NDX)' EQ '&LOGITEM').FOUND                      36240002
         AIF   (&NDX LT &ITEMNBR).LOOP                                  36360002
         MNOTE *,'LOG ITEM NOT DEFINED'                                 36480002
         MEXIT                                                          36600002
.FOUND   ANOP                                                           36720002