       TITLE   'IFCELEX1 MODEL 165 CPU EDIT TABLE 4'                    00060002
*  DSGEN MACRO     DSGEN MACRO     DSGEN MACRO     DSGEN MACRO        * 00120002
         SPACE 2                                                        00180002
         MACRO                                                          00240002
&NAME    DSGEN ,                                                        00300002
.*                            THIS MACRO GENERATES ONE DSECT WORD       00360002
.*                                 FORMATTED FOR THE SUBJECT LOG RECORD 00420002
.*                                 EACH OPERAND HAS TWO SUB LISTS. THE  00480002
.*                                 FIRST IS THE NAME OF THE LOG ITEM    00540002
.*                                 WHILE THE SECOND IS THE # OF BITS TO 00600002
.*                                 ALLOCATE FOR THIS ITEM. ITEMS MUST   00660002
.*                                 BE DEFINED CONTIGUOUSLY WITHOUT GAPS 00720002
.*                                 UNUSED BIT GROUPS MUST BE GIVEN      00780002
.*                                 DUMMY NAMES. THE NAMES PROVIDED FOR  00840002
.*                                 THE LOG ITEMS MAY THEN BE USED IN    00900002
.*                                 THE CONVERSION MACRO INSTRUCTIONS.   00960002
         GBLC &ITEM(2000)                                               01020002
         GBLA &ITEMNBR,&BITS(2000),&SHIFT(2000)                         01080002
         LCLB  &ONLY1,&CTIND                                            01140002
         LCLA  &START1,&START2,&END1,&END2                              01200002
         LCLC  &SYMBOL,&EQUSYM                                          01260002
         LCLA  &OP,&COUNT,&BYTE,&EQUCNT                                 01320002
         ACTR  100000                                                   01380002
.START   AIF   (N'&SYSLIST(&OP+1) LT 3).LOOP                            01440002
         AIF   ('&SYSLIST(&OP+1,3)' EQ 'EQU').LOOP     TEST FOR EQU     01500002
  AIF   ('&SYSLIST(&OP+1,3)' EQ '' OR '&SYSLIST(&OP+1,4)' EQ '').ERR1   01560002
         AIF   ('&SYSLIST(&OP+1,3)' GT '&SYSLIST(&OP+1,4)').ERR3        01620002
&START1  SETA  &SYSLIST(&OP+1,3)        GET START COUNT OF 1            01680002
&START2  SETA  &SYSLIST(&OP+1,4)        GET FIRST END COUNT             01740002
         AGO   .SET2A                   BRANCH AROUND                   01800002
.ERR1    MNOTE '**FIRST SYMBOL CONCATENATION INCOMPLETE**'              01860002
         MEXIT                                                          01920002
.SET2A   AIF   ('&SYSLIST(&OP+1,5)' EQ ''AND '&SYSLIST(&OP+1,6)' EQ '' X01980002
               ).SET2                   TEST FOR NO SECOND              02040002
  AIF   ('&SYSLIST(&OP+1,5)' EQ '' OR '&SYSLIST(&OP+1,6)' EQ '').ERR2   02100002
         AIF   ('&SYSLIST(&OP+1,5)' GT '&SYSLIST(&OP+1,6)').ERR3        02160002
&END1    SETA  &SYSLIST(&OP+1,5)        GET START COUNT OF 2            02220002
&END2    SETA  &SYSLIST(&OP+1,6)        GET END COUNT OF 2              02280002
         AGO   .LOOP                                                    02340002
.SET2    ANOP                                                           02400002
&ONLY1   SETB  1                        INDICATE ONLY ONE CONCATENATION 02460002
         AGO   .LOOP                                                    02520002
.ERR2    MNOTE '**SECOND SYMBOL CONCATENATION INCOMPLETE**'             02580002
         MEXIT                                                          02640002
.ERR3    MNOTE '**START GREATER THAN END CONCATENATION**'               02700002
         MEXIT                                                          02760002
.LOOP    ANOP                                                           02820002
&OP      SETA  &OP+1                                                    02880002
         AIF   (&OP GT N'&SYSLIST).DONE      TEST IF ALL DONE           02940002
&ITEMNBR SETA  &ITEMNBR+1                                               03000002
         AIF   ('&SYSLIST(&OP,2)' NE '').OK1                            03060002
         MNOTE '**NULL BIT COUNT FIELD**'                               03120002
         MEXIT                                                          03180002
.OK1     ANOP                                                           03240002
&SYMBOL  SETC  '&SYSLIST(&OP,1)'                                        03300002
         AIF   ('&SYMBOL' NE '').OK                                     03360002
*              *****     LOG ITEM SYMBOL NOT PROVIDED     *****         03420002
         AIF   ('&SYSLIST(&OP,3)' NE 'EQU').CNT                         03480002
         AGO   .START                   GET NEXT                        03540002
.OK      AIF   (N'&SYSLIST(&OP) LT 3).NO3    TEST FOR OLD FORMAT        03600002
         AIF   ('&SYSLIST(&OP,3)' EQ 'EQU').EQU   TEST FOR EQU          03660002
         AIF   (&ONLY1).OK2             TEST FOR ONLY ONE CONCAT        03720002
&SYMBOL  SETC  '&SYMBOL.&START1.&END1'       GET 1 AND 2 CONCAT         03780002
         AGO   .NO3                     BRANCH AROUND                   03840002
.OK2     ANOP                                                           03900002
&SYMBOL  SETC  '&SYMBOL.&START1'        GET 1 CONCATENATED              03960002
.NO3     ANOP                                                           04020002
&SYMBOL  EQU   *+&BYTE                                                  04080002
&ITEM(&ITEMNBR) SETC '&SYMBOL'          GET LABEL IN GLOBAL             04140002
&BITS(&ITEMNBR) SETA &SYSLIST(&OP,2)                                    04200002
&SHIFT(&ITEMNBR) SETA &COUNT-&BYTE*8                                    04260002
.CNT     ANOP                                                           04320002
&CTIND   SETB  1                        SET COUNT INDICATOR             04380002
&COUNT   SETA  &COUNT+&SYSLIST(&OP,2)                                   04440002
&BYTE    SETA  &COUNT/8                                                 04500002
         AIF   (N'&SYSLIST(&OP) LT 3).START  TEST FOR OLD FORMAT        04560002
         AIF   (&ONLY1).TSTST           TEST FOR ONLY ONE CONCAT        04620002
         AIF   (&END1 EQ &END2).TSTST   TEST FOR SECOND END             04680002
&END1    SETA  &END1+1                  INCREMENT COUNT                 04740002
&OP      SETA  &OP-1                    DECREMENT INCREMENT             04800002
         AGO   .LOOP                    GENERATE NEXT                   04860002
.TSTST   ANOP                                                           04920002
         AIF   (&START1 EQ &START2).LPDONE   TEST FOR END               04980002
         AIF   (&ONLY1).NSET1           TEST FOR ONLY ONE CONCAT        05040002
&END1    SETA  &SYSLIST(&OP,5)          RE-INIT SECOND START COUNT      05100002
.NSET1   ANOP                                                           05160002
&OP      SETA  &OP-1                    DECREMENT INDEX                 05220002
&START1  SETA  &START1+1                INCREMENT FIRST COUNT           05280002
         AGO   .LOOP                    GO DO NEXT                      05340002
.LPDONE  ANOP                                                           05400002
&ONLY1   SETB  0                        CLEAR INDICATOR                 05460002
         AGO   .START                   GO TEST FOR MORE SUB-LISTS      05520002
.DONE    AIF   (&COUNT-&COUNT/8*8 NE 0).ERR  TEST FOR MULTIPLE OF EIGHT 05580002
         AIF   (&CTIND EQ 0).END        NO DS IF NO COUNT               05640002
&COUNT   SETA  &COUNT/8                 GET NUMBER OF BYTES             05700002
&NAME    DS    &COUNT.C                                                 05760002
.END     MEXIT                                                          05820002
.ERR     MNOTE '**BIT COUNT FLDS DO NOT TOTAL MULTIPLE OF 8**'          05880002
         MEXIT                                                          05940002
.EQU     AIF   ('&SYSLIST(&OP,4)' NE '').EQU1     TEST FOR NULL LABEL   06000002
.ERR4    MNOTE '**EQU OPERAND OMITTED OR NOT FOUND**'                   06060002
         MEXIT                                                          06120002
.EQU1    AIF   (&SYSLIST(&OP,2) LT 16).EQU2  COUNT OVER FIFTEEN         06180002
*****               THE FOLLOWING STATEMENT                *****        06240002
*****     NUMBER OF BITS EXCEED 15 - DO NOT USE AS BIN     *****        06300002
.EQU2    ANOP                                                           06360002
&EQUCNT  SETA  0                        CLEAR COUNTER                   06420002
&EQUSYM  SETC  '&SYSLIST(&OP,4)'        GET EQU OPERAND                 06480002
.EQULOP  ANOP                                                           06540002
&EQUCNT  SETA  &EQUCNT+1                INCREMENT INDEX                 06600002
         AIF   ('&ITEM(&EQUCNT)' EQ '&EQUSYM').EQUOUT  LABEL FOUND?     06660002
         AIF   (&EQUCNT EQ &ITEMNBR).ERR4    ALL TESTED?                06720002
         AGO   .EQULOP                  NO-GET NEXT                     06780002
.EQUOUT  ANOP                                                           06840002
&ITEM(&ITEMNBR) SETC '&SYMBOL'          GET LABEL NAME                  06900002
&BITS(&ITEMNBR) SETA &SYSLIST(&OP,2)    GET NUMBER OF BITS              06960002
&SHIFT(&ITEMNBR) SETA &SHIFT(&EQUCNT)   GET SHIFT COUNT                 07020002
&SYMBOL  EQU   &EQUSYM                  THIS SYMBOL EQUATED             07080002
         AGO   .START                   RETURN FOR NEXT                 07140002
         MEND                                                           07200002
         EJECT                                                          07260002
         MACRO                                                          07320002
         LINEND                                                         07380002
.*                            THIS MACRO IS USED ONLY BY THE LINE       07440002
.*                                 MACRO TO SET THE NUMBER OF ENTRIES   07500002
.*                                 ASSOCIATED WITH EACH LINE.           07560002
         GBLA  &NRENTS                                                  07620002
         GBLC &NRENTSX                                                  07680002
         AIF   (&NRENTS EQ 0).NORENTS   TEST FOR NO COUNT               07740002
         ORG   &NRENTSX                                                 07800002
         DC    FL1'&NRENTS'                                             07860002
         ORG                                                            07920002
&NRENTS  SETA  0                                                        07980002
.NORENTS ANOP                                                           08040002
B&SYSNDX EQU   *                                                        08100002
&NRENTSX SETC  'B&SYSNDX'                                               08160002
         MEND                                                           08220002
*                                                                       08280002
         MACRO                                                          08340002
         BIN   ,                                                        08400002
.*                                 &SYSLIST(&OP,1) - NAME OF LOG ITEM   08460002
.*                                      RECORD DSECT                    08520002
.*                                 $SYSLIST(&OP,2) - NBR OF SPACES      08580002
.*                                      TO SKIP ON MULTIPLE             08640002
.*                                      PRINT OR NBR OF SPACES          08700002
.*                                      TO BACK UP FROM COLUMN FOR      08760002
.*                                      START OF PRINTING. THE LETTER   08820002
.*                                      B PRECEEDS THE NUMBER (B5) IF   08880002
.*                                      THE LATTER IS DESIRED. OMISSION 08940002
.*                                      OF THIS OPERAND FORCES OPTION 2 09000002
.*                                      WITH BACKUP SPACING EQUAL TO    09060002
.*                                 THE NUMBER OF BITS IN THE ITEM       09120002
.*                                 DEFINITION (VIA MACRO 'DSGEN').      09180002
.*                            A LIMIT OF 15 BITS IS IMPOSED FOR THE     09240002
.*                                 TOTAL NUMBER OF BITS TO PRINT.       09300002
         GBLA  &INITIAL                                                 09360002
         GBLB  &DIAGTST,&DIAGSET,&DIAGLIN                               09420002
         GBLC &ITEM(2000)                                               09480002
         GBLA &ITEMNBR,&BITS(2000),&SHIFT(2000),&NRENTS                 09540002
         GBLC  &DSECT                                                   09600002
         LCLB  &B,&SUB                                                  09660002
         LCLA  &IBITS,&NDX,&ISHIFT,&K                                   09720002
         LCLA  &TEMP,&T,&OP                                             09780002
         LCLC  &S                                                       09840002
         AIF   (&DIAGTST EQ 0).NOMSG                                    09900002
         AIF   (&INITIAL EQ 0).NOMSG                                    09960002
         AIF   (&DIAGLIN EQ 1).NOMSG                                    10020002
         MNOTE '**NO LINE ASSOCIATED WITH THIS DATA**'                  10080002
*****THE FOLLOWING GENERATED FOR TEST PURPOSES*****                     10140002
*        LINE                                                           10200002
         LINE                                                           10260002
.NOMSG   ANOP                                                           10320002
         AIF   (K'&SYSLIST(1) EQ K'&SYSLIST(1,1)).LOOP                  10380002
&SUB     SETB  1                                                        10440002
.LOOP    ANOP                                                           10500002
&OP      SETA  &OP+1                                                    10560002
.LOOP1   ANOP                                                           10620002
&NDX     SETA  &NDX+1                                                   10680002
         AIF   ('&ITEM(&NDX)' EQ '&SYSLIST(&OP,1)').FOUND               10740002
         AIF   (&NDX LT &ITEMNBR).LOOP1                                 10800002
         MNOTE '**LOG ITEM NOT DEFINED**'                               10860002
         MEXIT                                                          10920002
.FOUND   ANOP                                                           10980002
&ISHIFT  SETA  &SHIFT(&NDX)                                             11040002
&IBITS   SETA  &BITS(&NDX)                                              11100002
&T       SETA  &IBITS-1                                                 11160002
&B       SETB  0                                                        11220002
         AIF   (&IBITS GT 0 AND &IBITS LT 16).SUB0                      11280002
         MNOTE '**NO. OF BITS OUTSIDE RANGE OF 1-15**'                  11340002
         MEXIT                                                          11400002
.SUB0    AIF   (&SUB EQ 1).SUBA                                         11460002
         AIF   ('&SYSLIST(2)' EQ '').BACKUP                             11520002
&K       SETA  K'&SYSLIST(2)                                            11580002
&B       SETB  ('&SYSLIST(2)'(1,1) EQ 'B')                              11640002
&S       SETC  '&SYSLIST(2)'(&B+1,&K-&B)                                11700002
         AGO   .SUBB                                                    11760002
.SUBA    ANOP                                                           11820002
         AIF   ('&SYSLIST(&OP,2)' EQ '').BACKUP                         11880002
&K       SETA  K'&SYSLIST(&OP,2)                                        11940002
&B       SETB  ('&SYSLIST(&OP,2)'(1,1) EQ 'B')                          12000002
&S       SETC  '&SYSLIST(&OP,2)'(&B+1,&K-&B)                            12060002
.SUBB    ANOP                                                           12120002
&T       SETA  &S                                                       12180002
.BACKUP  ANOP                                                           12240002
&NRENTS  SETA  &NRENTS+1                                                12300002
&TEMP    SETA  &ISHIFT                                                  12360002
         AIF   (&IBITS NE 1 OR &B NE 0).BIN2                            12420002
         DC    AL.12(&SYSLIST(&OP,1)-&DSECT),XL.4'&TEMP'                12480002
         AGO   .OUT                                                     12540002
.BIN2    AIF   ('&SYSLIST(&OP,2)' NE '').BIN3                           12600002
&B       SETB  1                                                        12660002
.BIN3    ANOP                                                           12720002
         DC    AL.12(&SYSLIST(&OP,1)-&DSECT),XL.4'C'                    12780002
         DC    BL.1'&B',AL.7(&T),AL.4(&IBITS),FL.4'&ISHIFT'             12840002
.OUT     ANOP                                                           12900002
&NDX     SETA  0                                                        12960002
         AIF   (&SUB EQ 0).OUTA                                         13020002
         AIF   (&OP LT N'&SYSLIST).LOOP                                 13080002
.OUTA    ANOP                                                           13140002
         MEND                                                           13200002
         EJECT                                                          13260002
         MACRO                                                          13320002
         HEX                                                            13380002
.*                            THIS MACRO FACILITATES GENERATION OF THE  13440002
.*                                 TABLE ENTRIES SPECIFYING HEX TYPE    13500002
.*                                 CONVERSIONS.                         13560002
.*                            &SYSLIST(&OP,1) - NAME OF DATA ITEM TO BE 13620002
.*                                 CONVERTED                            13680002
.*                            &SYSLIST(&OP,2) - # OF SPACES TO SKIP ON  13740002
.*                                 MULTIPLE PRINT OR NBR OF SPACES TO   13800002
.*                                 BACK UP FROM COLUMN FOR START OF     13860002
.*                                 PRINTING. THE LETTER B PRECEEDS THE  13920002
.*                                 NUMBER (B8) IF THE LATTER OPTION IS  13980002
.*                                 DESIRED. OMISSION OF THIS OPERAND    14040002
.*                                 FORCES OPTION 2 WITH BACKUP SPACING  14100002
.*                                 EQUAL TO THE NUMBER OF BYTES SPECI-  14160002
.*                                 FIED BY THE NEXT OPERAND (TWICE THIS 14220002
.*                                 NUMBER IF SUFFIX IS EXPLICITLY OR    14280002
.*                                 IMPLICITLY B).                       14340002
.*                            &SYSLIST(&OP,3) - NUMBER OF BYTES TO      14400002
.*                                 PROCESS. THIS NUMBER IS SUFFIXED     14460002
.*                                 WITH AN L,R, OR B TO STIPULATE       14520002
.*                                 PRINTING OF THE LEFT HALF, RIGHT     14580002
.*                                 HALF, OR BOTH HALVES OF THE BYTE     14640002
.*                                 RESPECTIVELY. OMISSION OF THIS       14700002
.*                                 OPERAND DEFAULTS TO B WITH THE NUM-  14760002
.*                                 BER OF BYTES EQUAL TO THE ITEM LNGTH 14820002
.*                            A NEW ENTRY IS GENERATED ONLY WHEN NECES- 14880002
.*                                 SARY. THIS MACRO MUST BE THE FIRST   14940002
.*                                 MACRO INSTRUCTION ISSUED FOR THE     15000002
.*                                 SUBJECT LINE(S).                     15060002
         GBLC &ITEM(2000),&DSECT                                        15120002
         GBLA &ITEMNBR,&BITS(2000),&SHIFT(2000),&NRENTS                 15180002
         GBLA  &INITIAL                                                 15240002
         GBLB  &DIAGTST,&DIAGSET,&DIAGLIN                               15300002
         LCLB  &B,&SUB                                                  15360002
         LCLA  &IBITS,&NDX,&ISHIFT,&K,&T,&CODE,&BYTESP,&OP              15420002
         LCLC  &S,&LETTER                                               15480002
         AIF   (&DIAGTST EQ 0).NOMSG                                    15540002
         AIF   (&INITIAL EQ 0).NOMSG                                    15600002
         AIF   (&DIAGLIN EQ 1).NOMSG                                    15660002
         MNOTE '**NO LINE ASSOCIATED WITH THIS DATA**'                  15720002
*****THE FOLLOWING GENERATED FOR TEST PURPOSES*****                     15780002
*        LINE                                                           15840002
         LINE                                                           15900002
.NOMSG   ANOP                                                           15960002
         AIF   (K'&SYSLIST(1) EQ K'&SYSLIST(1,1)).LOOP                  16020002
&SUB     SETB  1                                                        16080002
.LOOP    ANOP                                                           16140002
&OP      SETA  &OP+1                                                    16200002
.LOOP1   ANOP                                                           16260002
&NDX     SETA  &NDX+1                                                   16320002
         AIF   ('&ITEM(&NDX)' EQ '&SYSLIST(&OP,1)').FOUND               16380002
         AIF   (&NDX LT &ITEMNBR).LOOP1                                 16440002
         MNOTE '**LOG ITEM NOT DEFINED**'                               16500002
         MEXIT                                                          16560002
.FOUND   ANOP                                                           16620002
&ISHIFT  SETA  &SHIFT(&NDX)                                             16680002
&IBITS   SETA  &BITS(&NDX)                                              16740002
         AIF   (&ISHIFT EQ 0 OR &ISHIFT EQ 4).ALIGN                     16800002
.ERR     MNOTE '**DATA NOT ALLIGNED ON HEX OR BYTE BOUNDARY**'          16860002
         MEXIT                                                          16920002
.ALIGN   ANOP                                                           16980002
&CODE    SETA  1                                                        17040002
         AIF   (&SUB EQ 1).SUBA                                         17100002
&K       SETA  K'&SYSLIST(3)                                            17160002
         AGO   .SUBB                                                    17220002
.SUBA    ANOP                                                           17280002
&K       SETA  K'&SYSLIST(&OP,3)                                        17340002
.SUBB    ANOP                                                           17400002
         AIF   (&IBITS-(&IBITS/4)*4 EQ 0).OK                            17460002
         MNOTE '**BIT LENGTH SPECIFICATION INCONSISTENT WITH CONTROL**' 17520002
         MEXIT                                                          17580002
.OK      AIF   (&SUB EQ 1).SUBC                                         17640002
         AIF   ('&SYSLIST(3)' EQ '').USEDEFN                            17700002
&LETTER  SETC  '&SYSLIST(3)'(&K,1)                                      17760002
&S       SETC  '&SYSLIST(3)'(1,&K-1)                                    17820002
         AGO   .SUBD                                                    17880002
.SUBC    ANOP                                                           17940002
         AIF   ('&SYSLIST(&OP,3)' EQ '').USEDEFN                        18000002
&LETTER  SETC  '&SYSLIST(&OP,3)'(&K,1)                                  18060002
&S       SETC  '&SYSLIST(&OP,3)'(1,&K-1)                                18120002
.SUBD    ANOP                                                           18180002
&BYTESP  SETA  &S                                                       18240002
         AIF   ('&LETTER' EQ 'B').BOTH                                  18300002
         AIF   ('&LETTER' EQ 'L').LEFT                                  18360002
&CODE    SETA  2                                                        18420002
         AGO   .L                                                       18480002
.LEFT    ANOP                                                           18540002
&CODE    SETA  1                                                        18600002
         AGO   .L                                                       18660002
.USEDEFN ANOP                                                           18720002
&BYTESP  SETA  &IBITS/8                                                 18780002
.BOTH    AIF   (&ISHIFT NE 0).ERR                                       18840002
&CODE    SETA  3                                                        18900002
&T       SETA  &BYTESP*2-1                                              18960002
&S       SETC  '&T'                                                     19020002
.OK2     AIF   (&ISHIFT EQ 0).L                                         19080002
&CODE    SETA  2                                                        19140002
.L       ANOP                                                           19200002
&B       SETB  1                                                        19260002
         AIF   (&SUB EQ 1).SUBE                                         19320002
         AIF   ('&SYSLIST(2)' EQ '').BACKUP                             19380002
&K       SETA  K'&SYSLIST(2)                                            19440002
&B       SETB  ('&SYSLIST(2)'(1,1) EQ 'B')                              19500002
&S       SETC  '&SYSLIST(2)'(&B+1,&K-&B)                                19560002
         AGO   .SUBF                                                    19620002
.SUBE    ANOP                                                           19680002
         AIF   ('&SYSLIST(&OP,2)' EQ '').BACKUP                         19740002
&K       SETA  K'&SYSLIST(&OP,2)                                        19800002
&B       SETB  ('&SYSLIST(&OP,2)'(1,1) EQ 'B')                          19860002
&S       SETC  '&SYSLIST(&OP,2)'(&B+1,&K-&B)                            19920002
.SUBF    ANOP                                                           19980002
.BACKUP  ANOP                                                           20040002
&NRENTS  SETA  &NRENTS+1                                                20100002
         AIF   (&BYTESP GT 0 AND &BYTESP LT 16).SUB0                    20160002
         MNOTE '**NO. OF BYTES OUTSIDE RANGE OF 1-15**'                 20220002
         MEXIT                                                          20280002
.SUB0    AIF   (&SUB EQ 1).SUBG                                         20340002
         DC    AL.12(&SYSLIST(1)-&DSECT),XL.4'A'                        20400002
         AGO   .SUBH                                                    20460002
.SUBG    ANOP                                                           20520002
         DC    AL.12(&SYSLIST(&OP,1)-&DSECT),XL.4'A'                    20580002
.SUBH    ANOP                                                           20640002
         DC    BL.1'&B',FL.7'&S',AL.4(&BYTESP),FL.4'&CODE'              20700002
.OUT     ANOP                                                           20760002
&NDX     SETA  0                                                        20820002
         AIF   (&SUB EQ 0).OUTA                                         20880002
         AIF   (&OP LT N'&SYSLIST).LOOP                                 20940002
.OUTA    ANOP                                                           21000002
         MEND                                                           21060002
         MACRO                                                          21120002
         LSTART ,                                                       21180002
.*                            THIS MACRO IS ISSUED WHEN THE LABEL AREA  21240002
.*                                 OF THE TABLE IS TO BEGIN.            21300002
         GBLA  &LABELNR                                                 21360002
         GBLC  &LBL(100)                                                21420002
         GBLC &LABELS(2000)                                             21480002
         GBLA  &LBLCTR(100)                                             21540002
         GBLB  &DIAGTST,&DIAGSET,&DIAGLIN                               21600002
         LCLA  &NDX,&CTR                                                21660002
         AIF   (&DIAGTST EQ 0).NODIAG                                   21720002
         AIF   (&DIAGSET EQ 0).NODIAG                                   21780002
         MNOTE '**NO LABEL ASSOCIATED WITH LAST SET**'                  21840002
***** THE FOLLOWING GENERATED FOR TEST PURPOSES *****                   21900002