*    DSGEN  MACRO       D S G E N   M A C R O           DSGEN  MACRO    00130002
         SPACE                                                          00180002
         MACRO                                                          00230002
&NAME    DSGEN ,                                                        00280002
.*                            THIS MACRO GENERATES ONE DSECT WORD       00330002
.*                                 FORMATTED FOR THE SUBJECT LOG RECORD 00380002
.*                                 EACH OPERAND HAS TWO SUB LISTS. THE  00430002
.*                                 FIRST IS THE NAME OF THE LOG ITEM    00480002
.*                                 WHILE THE SECOND IS THE # OF BITS TO 00530002
.*                                 ALLOCATE FOR THIS ITEM. ITEMS MUST   00580002
.*                                 BE DEFINED CONTIGUOUSLY WITHOUT GAPS 00630002
.*                                 UNUSED BIT GROUPS MUST BE GIVEN      00680002
.*                                 DUMMY NAMES. THE NAMES PROVIDED FOR  00730002
.*                                 THE LOG ITEMS MAY THEN BE USED IN    00780002
.*                                 THE CONVERSION MACRO INSTRUCTIONS.   00830002
         GBLA  &BITS(1000),&ITEMNBR,&SHIFT(1000)               @Y30LPDS 00880002
         GBLC  &ITEM(1000)                                     @Y30LPDS 00930002
         LCLB  &ONLY1,&CTIND                                   @Y30LPDS 00980002
         LCLA  &START1,&START2,&END1,&END2                     @Y30LPDS 01030002
         LCLC  &SYMBOL,&EQUSYM                                 @Y30LPDS 01080002
         LCLA  &OP,&COUNT,&BYTE,&EQUCNT                        @Y30LPDS 01130002
         ACTR  500000                                          @Y30LPDS 01180002
.START   AIF   (N'&SYSLIST(&OP+1) LT 3).LOOP                   @Y30LPDS 01230002
         AIF   ('&SYSLIST(&OP+1,3)' EQ 'EQU').LOOP     TEST FOR EQU     01280002
  AIF   ('&SYSLIST(&OP+1,3)' EQ '' OR '&SYSLIST(&OP+1,4)' EQ '').ERR1   01330002
         AIF   ('&SYSLIST(&OP+1,3)' GT '&SYSLIST(&OP+1,4)').ERR3        01380002
&START1  SETA  &SYSLIST(&OP+1,3)        GET START COUNT OF 1   @Y30LPDS 01430002
&START2  SETA  &SYSLIST(&OP+1,4)        GET FIRST END COUNT    @Y30LPDS 01480002
         AGO   .SET2A                   BRANCH AROUND          @Y30LPDS 01530002
.ERR1    MNOTE '**FIRST SYMBOL CONCATENATION INCOMPLETE**'     @Y30LPDS 01580002
         MEXIT                                                 @Y30LPDS 01630002
.SET2A   AIF   ('&SYSLIST(&OP+1,5)' EQ ''AND '&SYSLIST(&OP+1,6)' EQ '' X01680002
               ).SET2                   TEST FOR NO SECOND     @Y30LPDS 01730002
  AIF   ('&SYSLIST(&OP+1,5)' EQ '' OR '&SYSLIST(&OP+1,6)' EQ '').ERR2   01780002
         AIF   ('&SYSLIST(&OP+1,5)' GT '&SYSLIST(&OP+1,6)').ERR3        01830002
&END1    SETA  &SYSLIST(&OP+1,5)        GET START COUNT OF 2   @Y30LPDS 01880002
&END2    SETA  &SYSLIST(&OP+1,6)        GET END COUNT OF 2     @Y30LPDS 01930002
         AGO   .LOOP                                           @Y30LPDS 01980002
.SET2    ANOP                                                  @Y30LPDS 02030002
&ONLY1   SETB  1                        INDICATE ONLY ONE CONCATENATION 02080002
         AGO   .LOOP                                           @Y30LPDS 02130002
.ERR2    MNOTE '**SECOND SYMBOL CONCATENATION INCOMPLETE**'    @Y30LPDS 02180002
         MEXIT                                                 @Y30LPDS 02230002
.ERR3    MNOTE '**START GREATER THAN END CONCATENATION**'      @Y30LPDS 02280002
         MEXIT                                                 @Y30LPDS 02330002
.LOOP    ANOP                                                  @Y30LPDS 02380002
&OP      SETA  &OP+1                                           @Y30LPDS 02430002
         AIF   (&OP GT N'&SYSLIST).DONE      TEST IF ALL DONE  @Y30LPDS 02480002
&ITEMNBR SETA  &ITEMNBR+1                                      @Y30LPDS 02530002
         AIF   ('&SYSLIST(&OP,2)' NE '').OK1                   @Y30LPDS 02580002
         MNOTE '**NULL BIT COUNT FIELD**'                      @Y30LPDS 02630002
         MEXIT                                                 @Y30LPDS 02680002
.OK1     ANOP                                                  @Y30LPDS 02730002
&SYMBOL  SETC  '&SYSLIST(&OP,1)'                               @Y30LPDS 02780002
         AIF   ('&SYMBOL' NE '').OK                            @Y30LPDS 02830002
*              *****     LOG ITEM SYMBOL NOT PROVIDED     *****         02880002
         AIF   ('&SYSLIST(&OP,3)' NE 'EQU').CNT                @Y30LPDS 02930002
         AGO   .START                   GET NEXT               @Y30LPDS 02980002
.OK      AIF   (N'&SYSLIST(&OP) LT 3).NO3    TEST FOR OLD FORMAT        03030002
         AIF   ('&SYSLIST(&OP,3)' EQ 'EQU').EQU   TEST FOR EQU @Y30LPDS 03080002
         AIF   (&ONLY1).OK2             TEST FOR ONLY ONE CONCAT        03130002
&SYMBOL  SETC  '&SYMBOL.&START1.&END1'       GET 1 AND 2 CONCAT         03180002
         AGO   .NO3                     BRANCH AROUND          @Y30LPDS 03230002
.OK2     ANOP                                                  @Y30LPDS 03280002
&SYMBOL  SETC  '&SYMBOL.&START1'        GET 1 CONCATENATED     @Y30LPDS 03330002
.NO3     ANOP                                                  @Y30LPDS 03380002
&SYMBOL  EQU   *+&BYTE                                         @Y30LPDS 03430002
&ITEM(&ITEMNBR) SETC '&SYMBOL'          GET LABEL IN GLOBAL    @Y30LPDS 03480002
&BITS(&ITEMNBR) SETA &SYSLIST(&OP,2)                           @Y30LPDS 03530002
&SHIFT(&ITEMNBR) SETA &COUNT-&BYTE*8                           @Y30LPDS 03580002
.CNT     ANOP                                                  @Y30LPDS 03630002
&CTIND   SETB  1                        SET COUNT INDICATOR    @Y30LPDS 03680002
&COUNT   SETA  &COUNT+&SYSLIST(&OP,2)                          @Y30LPDS 03730002
&BYTE    SETA  &COUNT/8                                        @Y30LPDS 03780002
         AIF   (N'&SYSLIST(&OP) LT 3).START  TEST FOR OLD FORMAT        03830002
         AIF   (&ONLY1).TSTST           TEST FOR ONLY ONE CONCAT        03880002
         AIF   (&END1 EQ &END2).TSTST   TEST FOR SECOND END    @Y30LPDS 03930002
&END1    SETA  &END1+1                  INCREMENT COUNT        @Y30LPDS 03980002
&OP      SETA  &OP-1                    DECREMENT INCREMENT    @Y30LPDS 04030002
         AGO   .LOOP                    GENERATE NEXT          @Y30LPDS 04080002
.TSTST   ANOP                                                  @Y30LPDS 04130002
         AIF   (&START1 EQ &START2).LPDONE   TEST FOR END      @Y30LPDS 04180002
         AIF   (&ONLY1).NSET1           TEST FOR ONLY ONE CONCAT        04230002
&END1    SETA  &SYSLIST(&OP,5)          RE-INIT SECOND START COUNT      04280002
.NSET1   ANOP                                                  @Y30LPDS 04330002
&OP      SETA  &OP-1                    DECREMENT INDEX        @Y30LPDS 04380002
&START1  SETA  &START1+1                INCREMENT FIRST COUNT  @Y30LPDS 04430002
         AGO   .LOOP                    GO DO NEXT             @Y30LPDS 04480002
.LPDONE  ANOP                                                  @Y30LPDS 04530002
&ONLY1   SETB  0                        CLEAR INDICATOR        @Y30LPDS 04580002
         AGO   .START                   GO TEST FOR MORE SUB-LISTS      04630002
.DONE    AIF   (&COUNT-&COUNT/8*8 NE 0).ERR  TEST FOR MULTIPLE OF EIGHT 04680002
         AIF   (&CTIND EQ 0).END        NO DS IF NO COUNT      @Y30LPDS 04730002
&COUNT   SETA  &COUNT/8                 GET NUMBER OF BYTES    @Y30LPDS 04780002
&NAME    DS    &COUNT.C                                        @Y30LPDS 04830002
.END     MEXIT                                                 @Y30LPDS 04880002
.ERR     MNOTE '**BIT COUNT FLDS DO NOT TOTAL MULTIPLE OF 8**' @Y30LPDS 04930002
         MEXIT                                                 @Y30LPDS 04980002
.EQU     AIF   ('&SYSLIST(&OP,4)' NE '').EQU1     TEST FOR NULL LABEL   05030002
.ERR4    MNOTE '**EQU OPERAND OMITTED OR NOT FOUND**'          @Y30LPDS 05080002
         MEXIT                                                 @Y30LPDS 05130002
.EQU1    AIF   (&SYSLIST(&OP,2) LT 16).EQU2  COUNT OVER FIFTEEN         05180002
*****               THE FOLLOWING STATEMENT                *****        05230002
*****     NUMBER OF BITS EXCEED 15 - DO NOT USE AS BIN     *****        05280002
.EQU2    ANOP                                                  @Y30LPDS 05330002
&EQUCNT  SETA  0                        CLEAR COUNTER          @Y30LPDS 05380002
&EQUSYM  SETC  '&SYSLIST(&OP,4)'        GET EQU OPERAND        @Y30LPDS 05430002
.EQULOP  ANOP                                                  @Y30LPDS 05480002
&EQUCNT  SETA  &EQUCNT+1                INCREMENT INDEX        @Y30LPDS 05530002
         AIF   ('&ITEM(&EQUCNT)' EQ '&EQUSYM').EQUOUT  LABEL FOUND?     05580002
         AIF   (&EQUCNT EQ &ITEMNBR).ERR4    ALL TESTED?       @Y30LPDS 05630002
         AGO   .EQULOP                  NO-GET NEXT            @Y30LPDS 05680002
.EQUOUT  ANOP                                                  @Y30LPDS 05730002
&ITEM(&ITEMNBR) SETC '&SYMBOL'          GET LABEL NAME         @Y30LPDS 05780002
&BITS(&ITEMNBR) SETA &SYSLIST(&OP,2)    GET NUMBER OF BITS     @Y30LPDS 05830002
&SHIFT(&ITEMNBR) SETA &SHIFT(&EQUCNT)   GET SHIFT COUNT        @Y30LPDS 05880002
&SYMBOL  EQU   &EQUSYM                  THIS SYMBOL EQUATED    @Y30LPDS 05930002
         AGO   .START                   RETURN FOR NEXT        @Y30LPDS 05980002
         MEND                                                  @Y30LPDS 06030002
         EJECT                                                          06630002
*  LINE MACRO     LINE MACRO     LINE MACRO     LINE MACRO            * 06760002
         SPACE 2                                                        06890002
         MACRO                                                          07020002
&NAME    LINE  &DATA,&LABEL,&SKIP=                                      07150002
.*                            THIS MACRO ESTABLISHES THE MARGINS OR     07280002
.*                                 COLUMN SETTINGS FOR EACH LINE. IT    07410002
.*                                 GENERATES NECESSARY CARRIAGE CONTROL 07540002
.*                                 ENTRIES. LASTLY IT DETERMINES THE    07670002
.*                                 NUMBER OF ENTRIES ASSOCIATED WITH    07800002
.*                                 THE PREVIOUS LINE AND STORES THAT #  07930002
.*                                 INTO THE APPROPRIATE BYTE.           08060002
.*                            &DATA(1) - CHARACTER POSITION TO BEGIN    08190002
.*                                 DATA.                                08320002
.*                            &DATA(2) - # OF SPACES BETWEEN SUCCESSIVE 08450002
.*                                 DATA COLUMN STARTING CHARACTERS.     08580002
.*                            &LABEL(1) - CHAR. POS. TO BEGIN LABELS.   08710002
.*                            &LABEL(2) - # SPACES BETWEEN LINE'S LABEL 08840002
.*                                 STARTING CHARACTERS.                 08970002
.*                            &SKIP= - # OF LINES TO ADVANCE CARRIAGE   09100002
.*                                 TO BEGIN NEXT PRINTED LINE.          09230002
.*                            NEW ENTRIES ARE GENERATED ONLY WHEN       09360002
.*                                 NECESSARY. OMISSION OF ITEMS MEANS   09490002
.*                                 THEY HAVE NOT CHANGED SINCE PREVIOUS 09620002
.*                                 SETTINGS. A LINE MACRO IS REQUIRED   09750002
.*                                 FOR EACH PRINTED LINE. IF NO SETTING 09880002
.*                                 CHANGES ARE REQUIRED ALL OPERANDS    10010002
.*                                 ARE OMITTED IN WHICH CASE ONLY THE   10140002
.*                                 # OF ENTRIES FOR THE PREVIOUS LINE   10270002
.*                                 IS COMPUTED. THIS MACRO MUST BE THE  10400002
.*                                 FIRST MACRO INSTRUCTION ISSUED FOR   10530002
.*                                 THE SUBJECT LINE                     10660002
         GBLA  &DB,&DT,&LB,&LT,&NRENTS                                  10790002
         GBLA  &LASTCC,&INITIAL                                         10920002
         GBLC  &NRENTSX                                                 11050002
         GBLC  &CARRCON                                                 11180002
         GBLB  &TEST                                                    11310002
         LCLA  &S                                                       11440002
&NAME    DS    0C                                                       11570002
         AIF   (&INITIAL EQ 0).FIRSTLN                                  11700002
         LINEND                                                         11830002
         AGO   .NTFIRST                                                 11960002
.FIRSTLN ANOP                                                           12090002
&NRENTSX SETC  'N&SYSNDX'                                               12220002
&INITIAL SETA  1                                                        12350002
N&SYSNDX EQU   *                                                        12480002
.NTFIRST ANOP                                                           12610002
         DC    AL1(0)                                                   12740002
         AIF   ('&DATA(1)' EQ '').CKDTABS                               12870002
         AIF   (&DATA(1) EQ &DB).CKDTABS                                13000002
&DB      SETA  &DATA(1)                                                 13130002
         AGO   .AA                                                      13260002
.CKDTABS AIF   ('&DATA(2)' EQ '').NCDATA                                13390002
         AIF   (&DATA(2) EQ &DT).NCDATA                                 13520002
         AGO   .CC                                                      13650002
.AA      AIF   ('&DATA(2)' EQ '').BB                                    13780002
         AIF   (&DATA(2) EQ &DT).BB                                     13910002
.CC      ANOP                                                           14040002
&DT      SETA  &DATA(2)                                                 14170002
.BB      DC    XL2'FFFE'                                                14300002
         DC    FL1'&DB'                                                 14430002
         DC    FL1'&DT'                                                 14560002
&NRENTS  SETA  &NRENTS+1                                                14690002
.NCDATA  ANOP                                                           14820002
         AIF   ('&LABEL(1)' EQ '').CKLTABS                              14950002
         AIF   (&LABEL(1) EQ &LB).CKLTABS                               15080002
&LB      SETA  &LABEL(1)                                                15210002
         AGO   .AAA                                                     15340002
.CKLTABS AIF   ('&LABEL(2)' EQ '').NCLABEL                              15470002
         AIF   (&LABEL(2) EQ &LT).NCLABEL                               15600002
         AGO   .CCC                                                     15730002
.AAA     AIF   ('&LABEL(2)' EQ '').BBB                                  15860002
         AIF   (&LABEL(2) EQ &LT).BBB                                   15990002
.CCC     ANOP                                                           16120002
&LT      SETA  &LABEL(2)                                                16250002
.BBB     DC    XL2'FFFF'                                                16380002
         DC    FL1'&LB'                                                 16510002
         DC    FL1'&LT'                                                 16640002
&NRENTS  SETA  &NRENTS+1                                                16770002
.NCLABEL ANOP                                                           16900002
         AIF   ('&SKIP' NE '').CONT                                     17030002
         AIF   (&TEST EQ 0).NOCHANG                                     17160002
&S       SETA  &LASTCC                                                  17290002
         AGO   .DEFAULT                                                 17420002
.CONT    ANOP                                                           17550002
         AIF   (&TEST EQ 0).AB                                          17680002
&S       SETA  &SKIP                                                    17810002
.DEFAULT ANOP                                                           17940002
         ORG   &CARRCON+3                                               18070002
         DC    AL.3(0),AL.2(&S),AL.3(1)                                 18200002
         ORG                                                            18330002
&LASTCC  SETA  &S                                                       18460002
&TEST    SETB  0                                                        18590002
         AGO   .DD                                                      18720002
.AB      AIF   (&SKIP EQ &LASTCC).NOCHANG                               18850002
A&SYSNDX DC    XL2'FFFB'                                                18980002
         DC    AL.3(0),AL.2(&SKIP),AL.3(1)                              19110002
         DC    FL1'9'                                                   19240002
&LASTCC  SETA  &SKIP                                                    19370002
&TEST    SETB  1                                                        19500002
&CARRCON SETC  'A&SYSNDX'                                               19630002
&NRENTS  SETA  &NRENTS+1                                                19760002
.DD      ANOP                                                           19890002
.NOCHANG ANOP                                                           20020002
         MEND                                                           20150002
         EJECT                                                          20280002
*  BIN MACRO     BIN MACRO     BIN MACRO     BIN MACRO     BIN MACRO  * 20410002
         SPACE 2                                                        20540002
         MACRO                                                          20670002
         BIN   &LOGITEM,&SKIP$OR                                        20800002
.*                                 &LOGITEM - NAME OF ITEM IN LOG       20930002
.*                                      RECORD DSECT                    21060002
.*                                 &SKIP$OR - NBR OF SPACES TO SKIP ON  21190002
.*                                 MULTIPLE PRINT OR NBR OF SPACES      21320002
.*                                      TO BACK UP FROM COLUMN FOR      21450002
.*                                      START OF PRINTING. THE LETTER   21580002
.*                                      B PRECEEDS THE NUMBER (B5) IF   21710002
.*                                      THE LATTER IS DESIRED. OMISSION 21840002
.*                                      OF THIS OPERAND FORCES OPTION 2 21970002
.*                                      WITH BACKUP SPACING EQUAL TO    22100002
.*                                 THE NUMBER OF BITS IN THE ITEM       22230002
.*                                 DEFINITION (VIA MACRO 'DSGEN').      22360002
.*                            A LIMIT OF 15 BITS IS IMPOSED FOR THE     22490002
.*                                 TOTAL NUMBER OF BITS TO PRINT.       22620002
         GBLC &ITEM(1000)                                               22750002
         GBLA &ITEMNBR,&BITS(1000),&SHIFT(1000),&NRENTS                 22880002
         GBLC  &DSECT                                                   23010002
         LCLB  &B                                                       23140002
         LCLA  &IBITS,&NDX,&ISHIFT,&K                                   23270002
         LCLA  &TEMP,&T                                                 23400002
         LCLC  &S                                                       23530002
.LOOP    ANOP                                                           23660002
&NDX     SETA  &NDX+1                                                   23790002
         AIF   ('&ITEM(&NDX)' EQ '&LOGITEM').FOUND                      23920002
         AIF   (&NDX LT &ITEMNBR).LOOP                                  24050002
         MNOTE *,'YOU BLEW IT'                                          24180002
         ROUTINE DUM,SKIPPER                                            24310002
         MEXIT                                                          24440002
.FOUND   ANOP                                                           24570002
&ISHIFT  SETA  &SHIFT(&NDX)                                             24700002
&IBITS   SETA  &BITS(&NDX)                                              24830002
&T       SETA  &IBITS-1                                                 24960002
&B       SETB  0                                                        25090002
         AIF   ('&SKIP$OR' EQ '').BACKUP                                25220002
&K       SETA  K'&SKIP$OR                                               25350002
&B       SETB  ('&SKIP$OR'(1,1) EQ 'B')                                 25480002
&S       SETC  '&SKIP$OR'(&B+1,&K-&B)                                   25610002
&T       SETA  &S                                                       25740002
.BACKUP  ANOP                                                           25870002
&NRENTS  SETA  &NRENTS+1                                                26000002
&TEMP    SETA  &ISHIFT                                                  26130002
A&SYSNDX DC    AL.12(&LOGITEM-&DSECT),XL.4'&TEMP'                       26260002
         AIF (&IBITS EQ 1 AND &B EQ 0).OUT                              26390002
         ORG   A&SYSNDX                                                 26520002
&B       SETB  1                                                        26650002
         DC    AL.12(&LOGITEM-&DSECT),XL.4'C'                           26780002
         DC    BL.1'&B',AL.7(&T),AL.4(&IBITS),FL.4'&ISHIFT'             26910002
.OUT     ANOP                                                           27040002
         MEND                                                           27170002
         EJECT                                                          27300002
*  HEX MACRO     HEX MACRO     HEX MACRO    HEXN MACRO     HEX MACRO  * 27430002
         SPACE 2                                                        27560002
         MACRO                                                          27690002
         HEX   &LOGITEM,&SKIP$OR,&BYTES                                 27820002
.*                            THIS MACRO FACILITATES GENERATION OF THE  27950002
.*                                 TABLE ENTRIES SPECIFYING HEX TYPE    28080002
.*                                 CONVERSIONS.                         28210002
.*                            &LOGITEM - NAME OF DATA ITEM TO BE        28340002
.*                                 CONVERTED                            28470002
.*                            &SKIP$OR - NUMBER OF SPACES TO SKIP ON    28600002
.*                                 MULTIPLE PRINT OR NBR OF SPACES TO   28730002
.*                                 BACK UP FROM COLUMN FOR START OF     28860002
.*                                 PRINTING. THE LETTER B PRECEEDS THE  28990002
.*                                 NUMBER (B8) IF THE LATTER OPTION IS  29120002
.*                                 DESIRED. OMISSION OF THIS OPERAND    29250002
.*                                 FORCES OPTION 2 WITH BACKUP SPACING  29380002
.*                                 EQUAL TO THE NUMBER OF BYTES SPECI-  29510002
.*                                 FIED BY THE NEXT OPERAND (TWICE THIS 29640002
.*                                 NUMBER IF SUFFIX IS EXPLICITLY OR    29770002
.*                                 IMPLICITLY B).                       29900002
.*                            &BYTES - NUMBER OF TOTAL INPUT BYTES TO   30030002
.*                                 PROCESS. THIS NUMBER IS SUFFIXED     30160002
.*                                 WITH AN L,R, OR B TO STIPULATE       30290002
.*                                 PRINTING OF THE LEFT HALF, RIGHT     30420002
.*                                 HALF, OR BOTH HALVES OF THE BYTE     30550002
.*                                 RESPECTIVELY. OMISSION OF THIS       30680002
.*                                 OPERAND DEFAULTS TO B WITH THE NUM-  30810002
.*                                 BER OF BYTES EQUAL TO THE ITEM LNGTH 30940002
.*                            A NEW ENTRY IS GENERATED ONLY WHEN NECES- 31070002
.*                                 SARY. THIS MACRO MUST BE THE FIRST   31200002
.*                                 MACRO INSTRUCTION ISSUED FOR THE     31330002
.*                                 SUBJECT LINE(S).                     31460002
         GBLC &ITEM(1000),&DSECT                                        31590002
         GBLA &ITEMNBR,&BITS(1000),&SHIFT(1000),&NRENTS                 31720002
         LCLB  &B                                                       31850002
         LCLA  &IBITS,&NDX,&ISHIFT,&K,&T,&CODE,&BYTESP                  31980002
         LCLC  &S,&LETTER                                               32110002
.LOOP    ANOP                                                           32240002
&NDX     SETA  &NDX+1                                                   32370002
         AIF   ('&ITEM(&NDX)' EQ '&LOGITEM').FOUND                      32500002
         AIF   (&NDX LT &ITEMNBR).LOOP                                  32630002
         MNOTE *,'LOG ITEM NOT DEFINED'                                 32760002
         MEXIT                                                          32890002
.FOUND   ANOP                                                           33020002
&ISHIFT  SETA  &SHIFT(&NDX)                                             33150002
&IBITS   SETA  &BITS(&NDX)                                              33280002
&CODE    SETA  1                                                        33410002
&K       SETA  K'&BYTES                                                 33540002
         AIF   (&IBITS-(&IBITS/4)*4 EQ 0).OK                            33670002
         MNOTE *,'BIT LENGTH SPECIFICATION INCONSISTENT WITH CONTROL'   33800002
         MEXIT                                                          33930002
.OK      AIF   ('&BYTES' EQ '').USEDEFN                                 34060002
&LETTER  SETC  '&BYTES'(&K,1)                                           34190002
&S       SETC  '&BYTES'(1,&K-1)                                         34320002
&BYTESP  SETA  &S                                                       34450002
         AIF   ('&LETTER' EQ 'B').BOTH                                  34580002
         AIF   (&ISHIFT EQ 0 OR &ISHIFT EQ 4).OK2                       34710002
.ERR     MNOTE *,'DATA NOT ALLIGNED ON HEX OR BYTE BOUNDARY'            34840002
         MEXIT                                                          34970002
.USEDEFN ANOP                                                           35100002
&BYTESP  SETA  &IBITS/8                                                 35230002
.BOTH    AIF   (&ISHIFT NE 0).ERR                                       35360002
&CODE    SETA  3                                                        35490002
&T       SETA  &BYTESP*2-1                                              35620002
&S       SETC  '&T'                                                     35750002
.OK2     AIF   (&ISHIFT EQ 0).L                                         35880002
&CODE    SETA  2                                                        36010002
.L       ANOP                                                           36140002
&B       SETB  1                                                        36270002
         AIF   ('&SKIP$OR' EQ '').BACKUP                                36400002
&K       SETA  K'&SKIP$OR                                               36530002
&B       SETB  ('&SKIP$OR'(1,1) EQ 'B')                                 36660002
&S       SETC  '&SKIP$OR'(&B+1,&K-&B)                                   36790002
.BACKUP  ANOP                                                           36920002
&NRENTS  SETA  &NRENTS+1                                                37050002
         DC    AL.12(&LOGITEM-&DSECT),XL.4'A'                           37180002
         DC    BL.1'&B',FL.7'&S',FL.4'&BYTESP',FL.4'&CODE'              37310002
.OUT     ANOP                                                           37440002
         MEND                                                           37570002
         SPACE 2                                                        37700002
*  ROUTINE MACRO     ROUTINE MACRO     ROUTINE MACRO     ROUTINE MACRO* 37830002
         SPACE 2                                                        37960002
         MACRO                                                          38090002
&NAME    ROUTINE &LOGITEM,&RNAME                                        38220002
         GBLC  &DSECT,&CSECT                                            38350002
         GBLC  &ITEM(1000)                                              38480002