       TITLE   'IFCEA165 MODEL 165 CPU EDIT TABLE 2'                    00050020
*  DSGEN MACRO     DSGEN MACRO     DSGEN MACRO     DSGEN MACRO        * 00100020
         SPACE 2                                                        00150020
         MACRO                                                          00200020
&NAME    DSGEN &X1,&X2,&X3,&X4,&X5,&X6,&X7,&X8,&X9,&X10,&X11,&X12,&X13,X00250020
               &X14,&X15,&X16,&X17,&X18,&X19,&X20,&X21,&X22,&X23,&X24, X00300020
               &X25,&X26,&X27,&X28,&X29,&X30,&X31,&X32                  00350020
.*                            THIS MACRO GENERATES ONE DSECT WORD       00400020
.*                                 FORMATTED FOR THE SUBJECT LOG RECORD 00450020
.*                                 EACH OPERAND HAS TWO SUB LISTS. THE  00500020
.*                                 FIRST IS THE NAME OF THE LOG ITEM    00550020
.*                                 WHILE THE SECOND IS THE # OF BITS TO 00600020
.*                                 ALLOCATE FOR THIS ITEM. ITEMS MUST   00650020
.*                                 BE DEFINED CONTIGUOUSLY WITHOUT GAPS 00700020
.*                                 UNUSED BIT GROUPS MUST BE GIVEN      00750020
.*                                 DUMMY NAMES. THE NAMES PROVIDED FOR  00800020
.*                                 THE LOG ITEMS MAY THEN BE USED IN    00850020
.*                                 THE CONVERSION MACRO INSTRUCTIONS.   00900020
         GBLC &ITEM(1500)                                               00950020
         GBLA &ITEMNBR,&BITS(1500),&SHIFT(1500)                         01000020
         LCLC  &SYMBOL                                                  01050020
         LCLA  &OP,&COUNT,&BYTE                                         01100020
.LOOP    ANOP                                                           01150020
&OP      SETA  &OP+1                                                    01200020
&ITEMNBR SETA  &ITEMNBR+1                                               01250020
&SYMBOL  SETC  '&SYSLIST(&OP,1)'                                        01300020
         AIF   ('&SYSLIST(&OP,2)' NE '').OK1                            01350020
         MNOTE *,'NULL BIT COUNT FIELD'                                 01400020
         MEXIT                                                          01450020
.OK1     ANOP                                                           01500020
         AIF   ('&SYMBOL' NE '').OK                                     01550020
         MNOTE 'LOG ITEM SYMBOL NOT PROVIDED'                           01600020
         AGO   .CNT                                                     01650020
.OK      ANOP                                                           01700020
         AIF   ('&SYMBOL'(1,1) EQ '''').CNT                *TEMP*       01750020
&SYMBOL  EQU   *+&BYTE                                                  01800020
&ITEM(&ITEMNBR)  SETC '&SYSLIST(&OP,1)'                                 01850020
&BITS(&ITEMNBR) SETA &SYSLIST(&OP,2)                                    01900020
&SHIFT(&ITEMNBR) SETA &COUNT-&BYTE*8                                    01950020
.CNT     ANOP                                                           02000020
&COUNT   SETA  &COUNT+&SYSLIST(&OP,2)                                   02050020
&BYTE    SETA  &COUNT/8                                                 02100020
         AIF (&OP LT N'&SYSLIST).LOOP                                   02150020
         AIF   (&COUNT NE 32).NOT32                                     02200020
&NAME    DS    4C                                                       02250020
         MEXIT                                                          02300020
.NOT32   AIF   (&COUNT NE 64).ERR                                       02350020
&NAME    DS    8C                                                       02400020
         MEXIT                                                          02450020
.ERR     MNOTE '**BIT COUNT FIELDS DO NOT TOTAL 32 OR 64**'             02500020
         MEND                                                           02550020
         EJECT                                                          02600020
*  LINE MACRO     LINE MACRO     LINE MACRO     LINE MACRO            * 02650020
         SPACE 2                                                        02700020
         MACRO                                                          02750020
&NAME    LINE  &DATA,&LABEL,&SKIP=                                      02800020
.*                            THIS MACRO ESTABLISHES THE MARGINS OR     02850020
.*                                 COLUMN SETTINGS FOR EACH LINE. IT    02900020
.*                                 GENERATES NECESSARY CARRIAGE CONTROL 02950020
.*                                 ENTRIES. LASTLY IT DETERMINES THE    03000020
.*                                 NUMBER OF ENTRIES ASSOCIATED WITH    03050020
.*                                 THE PREVIOUS LINE AND STORES THAT #  03100020
.*                                 INTO THE APPROPRIATE BYTE.           03150020
.*                            &DATA(1) - CHARACTER POSITION TO BEGIN    03200020
.*                                 DATA.                                03250020
.*                            &DATA(2) - # OF SPACES BETWEEN SUCCESSIVE 03300020
.*                                 DATA COLUMN STARTING CHARACTERS.     03350020
.*                            &LABEL(1) - CHAR. POS. TO BEGIN LABELS.   03400020
.*                            &LABEL(2) - # SPACES BETWEEN LINE'S LABEL 03450020
.*                                 STARTING CHARACTERS.                 03500020
.*                            &SKIP= - # OF LINES TO ADVANCE CARRIAGE   03550020
.*                                 TO BEGIN NEXT PRINTED LINE.          03600020
.*                            NEW ENTRIES ARE GENERATED ONLY WHEN       03650020
.*                                 NECESSARY. OMISSION OF ITEMS MEANS   03700020
.*                                 THEY HAVE NOT CHANGED SINCE PREVIOUS 03750020
.*                                 SETTINGS. A LINE MACRO IS REQUIRED   03800020
.*                                 FOR EACH PRINTED LINE. IF NO SETTING 03850020
.*                                 CHANGES ARE REQUIRED ALL OPERANDS    03900020
.*                                 ARE OMITTED IN WHICH CASE ONLY THE   03950020
.*                                 # OF ENTRIES FOR THE PREVIOUS LINE   04000020
.*                                 IS COMPUTED. THIS MACRO MUST BE THE  04050020
.*                                 FIRST MACRO INSTRUCTION ISSUED FOR   04100020
.*                                 THE SUBJECT LINE                     04150020
         GBLA  &DB,&DT,&LB,&LT,&NRENTS                                  04200020
         GBLA  &LASTCC,&INITIAL                                         04250020
         GBLC  &NRENTSX                                                 04300020
         GBLC  &CARRCON                                                 04350020
         GBLB  &TEST                                                    04400020
         LCLA  &S                                                       04450020
&NAME    DS    0C                                                       04500020
         AIF   (&INITIAL EQ 0).FIRSTLN                                  04550020
         LINEND                                                         04600020
         AGO   .NTFIRST                                                 04650020
.FIRSTLN ANOP                                                           04700020
&NRENTSX SETC  'N&SYSNDX'                                               04750020
&INITIAL SETA  1                                                        04800020
N&SYSNDX EQU   *                                                        04850020
.NTFIRST ANOP                                                           04900020
         DC    AL1(0)                                                   04950020
         AIF   ('&DATA(1)' EQ '').CKDTABS                               05000020
         AIF   (&DATA(1) EQ &DB).CKDTABS                                05050020
&DB      SETA  &DATA(1)                                                 05100020
         AGO   .AA                                                      05150020
.CKDTABS AIF   ('&DATA(2)' EQ '').NCDATA                                05200020
         AIF   (&DATA(2) EQ &DT).NCDATA                                 05250020
         AGO   .CC                                                      05300020
.AA      AIF   ('&DATA(2)' EQ '').BB                                    05350020
         AIF   (&DATA(2) EQ &DT).BB                                     05400020
.CC      ANOP                                                           05450020
&DT      SETA  &DATA(2)                                                 05500020
.BB      DC    XL2'FFFE'                                                05550020
         DC    FL1'&DB'                                                 05600020
         DC    FL1'&DT'                                                 05650020
&NRENTS  SETA  &NRENTS+1                                                05700020
.NCDATA  ANOP                                                           05750020
         AIF   ('&LABEL(1)' EQ '').CKLTABS                              05800020
         AIF   (&LABEL(1) EQ &LB).CKLTABS                               05850020
&LB      SETA  &LABEL(1)                                                05900020
         AGO   .AAA                                                     05950020
.CKLTABS AIF   ('&LABEL(2)' EQ '').NCLABEL                              06000020
         AIF   (&LABEL(2) EQ &LT).NCLABEL                               06050020
         AGO   .CCC                                                     06100020
.AAA     AIF   ('&LABEL(2)' EQ '').BBB                                  06150020
         AIF   (&LABEL(2) EQ &LT).BBB                                   06200020
.CCC     ANOP                                                           06250020
&LT      SETA  &LABEL(2)                                                06300020
.BBB     DC    XL2'FFFF'                                                06350020
         DC    FL1'&LB'                                                 06400020
         DC    FL1'&LT'                                                 06450020
&NRENTS  SETA  &NRENTS+1                                                06500020
.NCLABEL ANOP                                                           06550020
         AIF   ('&SKIP' NE '').CONT                                     06600020
         AIF   (&TEST EQ 0).NOCHANG                                     06650020
&S       SETA  &LASTCC                                                  06700020
         AGO   .DEFAULT                                                 06750020
.CONT    ANOP                                                           06800020
         AIF   (&TEST EQ 0).AB                                          06850020
&S       SETA  &SKIP                                                    06900020
.DEFAULT ANOP                                                           06950020
         ORG   &CARRCON+3                                               07000020
         DC    AL.3(0),AL.2(&S),AL.3(1)                                 07050020
         ORG                                                            07100020
&LASTCC  SETA  &S                                                       07150020
&TEST    SETB  0                                                        07200020
         AGO   .DD                                                      07250020
.AB      AIF   (&SKIP EQ &LASTCC).NOCHANG                               07300020
A&SYSNDX DC    XL2'FFFB'                                                07350020
         DC    AL.3(0),AL.2(&SKIP),AL.3(1)                              07400020
         DC    FL1'9'                                                   07450020
&LASTCC  SETA  &SKIP                                                    07500020
&TEST    SETB  1                                                        07550020
&CARRCON SETC  'A&SYSNDX'                                               07600020
&NRENTS  SETA  &NRENTS+1                                                07650020
.DD      ANOP                                                           07700020
.NOCHANG ANOP                                                           07750020
         MEND                                                           07800020
         EJECT                                                          07850020
*  BIN MACRO     BIN MACRO     BIN MACRO     BIN MACRO     BIN MACRO  * 07900020
         SPACE 2                                                        07950020
         MACRO                                                          08000020
         BIN   &LOGITEM,&SKIP$OR                                        08050020
.*                                 &LOGITEM - NAME OF ITEM IN LOG       08100020
.*                                      RECORD DSECT                    08150020
.*                                 &SKIP$OR - NBR OF SPACES TO SKIP ON  08200020
.*                                 MULTIPLE PRINT OR NBR OF SPACES      08250020
.*                                      TO BACK UP FROM COLUMN FOR      08300020
.*                                      START OF PRINTING. THE LETTER   08350020
.*                                      B PRECEEDS THE NUMBER (B5) IF   08400020
.*                                      THE LATTER IS DESIRED. OMISSION 08450020
.*                                      OF THIS OPERAND FORCES OPTION 2 08500020
.*                                      WITH BACKUP SPACING EQUAL TO    08550020
.*                                 THE NUMBER OF BITS IN THE ITEM       08600020
.*                                 DEFINITION (VIA MACRO 'DSGEN').      08650020
.*                            A LIMIT OF 15 BITS IS IMPOSED FOR THE     08700020
.*                                 TOTAL NUMBER OF BITS TO PRINT.       08750020
         GBLC &ITEM(1500)                                               08800020
         GBLA &ITEMNBR,&BITS(1500),&SHIFT(1500),&NRENTS                 08850020
         GBLC  &DSECT                                                   08900020
         LCLB  &B                                                       08950020
         LCLA  &IBITS,&NDX,&ISHIFT,&K                                   09000020
         LCLA  &TEMP,&T                                                 09050020
         LCLC  &S                                                       09100020
.LOOP    ANOP                                                           09150020
&NDX     SETA  &NDX+1                                                   09200020
         AIF   ('&ITEM(&NDX)' EQ '&LOGITEM').FOUND                      09250020
         AIF   (&NDX LT &ITEMNBR).LOOP                                  09300020
         MNOTE *,'YOU BLEW IT'                                          09350020
         ROUTINE DUM,SKIPPER                                            09400020
         MEXIT                                                          09450020
.FOUND   ANOP                                                           09500020
&ISHIFT  SETA  &SHIFT(&NDX)                                             09550020
&IBITS   SETA  &BITS(&NDX)                                              09600020
&T       SETA  &IBITS-1                                                 09650020
&B       SETB  0                                                        09700020
         AIF   ('&SKIP$OR' EQ '').BACKUP                                09750020
&K       SETA  K'&SKIP$OR                                               09800020
&B       SETB  ('&SKIP$OR'(1,1) EQ 'B')                                 09850020
&S       SETC  '&SKIP$OR'(&B+1,&K-&B)                                   09900020
&T       SETA  &S                                                       09950020
.BACKUP  ANOP                                                           10000020
&NRENTS  SETA  &NRENTS+1                                                10050020
&TEMP    SETA  &ISHIFT                                                  10100020
A&SYSNDX DC    AL.12(&LOGITEM-&DSECT),XL.4'&TEMP'                       10150020
         AIF (&IBITS EQ 1 AND &B EQ 0).OUT                              10200020
         ORG   A&SYSNDX                                                 10250020
&B       SETB  1                                                        10300020
         DC    AL.12(&LOGITEM-&DSECT),XL.4'C'                           10350020
         DC    BL.1'&B',AL.7(&T),AL.4(&IBITS),FL.4'&ISHIFT'             10400020
.OUT     ANOP                                                           10450020
         MEND                                                           10500020
         EJECT                                                          10550020
*  HEX MACRO     HEX MACRO     HEX MACRO    HEXN MACRO     HEX MACRO  * 10600020
         SPACE 2                                                        10650020
         MACRO                                                          10700020
         HEX   &LOGITEM,&SKIP$OR,&BYTES                                 10750020
.*                            THIS MACRO FACILITATES GENERATION OF THE  10800020
.*                                 TABLE ENTRIES SPECIFYING HEX TYPE    10850020
.*                                 CONVERSIONS.                         10900020
.*                            &LOGITEM - NAME OF DATA ITEM TO BE        10950020
.*                                 CONVERTED                            11000020
.*                            &SKIP$OR - NUMBER OF SPACES TO SKIP ON    11050020
.*                                 MULTIPLE PRINT OR NBR OF SPACES TO   11100020
.*                                 BACK UP FROM COLUMN FOR START OF     11150020
.*                                 PRINTING. THE LETTER B PRECEEDS THE  11200020
.*                                 NUMBER (B8) IF THE LATTER OPTION IS  11250020
.*                                 DESIRED. OMISSION OF THIS OPERAND    11300020
.*                                 FORCES OPTION 2 WITH BACKUP SPACING  11350020
.*                                 EQUAL TO THE NUMBER OF BYTES SPECI-  11400020
.*                                 FIED BY THE NEXT OPERAND (TWICE THIS 11450020
.*                                 NUMBER IF SUFFIX IS EXPLICITLY OR    11500020
.*                                 IMPLICITLY B).                       11550020
.*                            &BYTES - NUMBER OF TOTAL INPUT BYTES TO   11600020
.*                                 PROCESS. THIS NUMBER IS SUFFIXED     11650020
.*                                 WITH AN L,R, OR B TO STIPULATE       11700020
.*                                 PRINTING OF THE LEFT HALF, RIGHT     11750020
.*                                 HALF, OR BOTH HALVES OF THE BYTE     11800020
.*                                 RESPECTIVELY. OMISSION OF THIS       11850020
.*                                 OPERAND DEFAULTS TO B WITH THE NUM-  11900020
.*                                 BER OF BYTES EQUAL TO THE ITEM LNGTH 11950020
.*                            A NEW ENTRY IS GENERATED ONLY WHEN NECES- 12000020
.*                                 SARY. THIS MACRO MUST BE THE FIRST   12050020
.*                                 MACRO INSTRUCTION ISSUED FOR THE     12100020
.*                                 SUBJECT LINE(S).                     12150020
         GBLC &ITEM(1500),&DSECT                                        12200020
         GBLA &ITEMNBR,&BITS(1500),&SHIFT(1500),&NRENTS                 12250020
         LCLB  &B                                                       12300020
         LCLA  &IBITS,&NDX,&ISHIFT,&K,&T,&CODE,&BYTESP                  12350020
         LCLC  &S,&LETTER                                               12400020
.LOOP    ANOP                                                           12450020
&NDX     SETA  &NDX+1                                                   12500020
         AIF   ('&ITEM(&NDX)' EQ '&LOGITEM').FOUND                      12550020
         AIF   (&NDX LT &ITEMNBR).LOOP                                  12600020
         MNOTE *,'LOG ITEM NOT DEFINED'                                 12650020
         MEXIT                                                          12700020
.FOUND   ANOP                                                           12750020
&ISHIFT  SETA  &SHIFT(&NDX)                                             12800020
&IBITS   SETA  &BITS(&NDX)                                              12850020
&CODE    SETA  1                                                        12900020
&K       SETA  K'&BYTES                                                 12950020
         AIF   (&IBITS-(&IBITS/4)*4 EQ 0).OK                            13000020
         MNOTE *,'BIT LENGTH SPECIFICATION INCONSISTENT WITH CONTROL'   13050020
         MEXIT                                                          13100020
.OK      AIF   ('&BYTES' EQ '').USEDEFN                                 13150020
&LETTER  SETC  '&BYTES'(&K,1)                                           13200020
&S       SETC  '&BYTES'(1,&K-1)                                         13250020
&BYTESP  SETA  &S                                                       13300020
         AIF   ('&LETTER' EQ 'B').BOTH                                  13350020
         AIF   (&ISHIFT EQ 0 OR &ISHIFT EQ 4).OK2                       13400020
.ERR     MNOTE *,'DATA NOT ALLIGNED ON HEX OR BYTE BOUNDARY'            13450020
         MEXIT                                                          13500020
.USEDEFN ANOP                                                           13550020
&BYTESP  SETA  &IBITS/8                                                 13600020
.BOTH    AIF   (&ISHIFT NE 0).ERR                                       13650020
&CODE    SETA  3                                                        13700020
&T       SETA  &BYTESP*2-1                                              13750020
&S       SETC  '&T'                                                     13800020
.OK2     AIF   (&ISHIFT EQ 0).L                                         13850020
&CODE    SETA  2                                                        13900020
.L       ANOP                                                           13950020
&B       SETB  1                                                        14000020
         AIF   ('&SKIP$OR' EQ '').BACKUP                                14050020
&K       SETA  K'&SKIP$OR                                               14100020
&B       SETB  ('&SKIP$OR'(1,1) EQ 'B')                                 14150020
&S       SETC  '&SKIP$OR'(&B+1,&K-&B)                                   14200020
.BACKUP  ANOP                                                           14250020
&NRENTS  SETA  &NRENTS+1                                                14300020
         DC    AL.12(&LOGITEM-&DSECT),XL.4'A'                           14350020
         DC    BL.1'&B',FL.7'&S',AL.4(&BYTESP),FL.4'&CODE'              14400020
.OUT     ANOP                                                           14450020
         MEND                                                           14500020
         SPACE 2                                                        14550020
*  ROUTINE MACRO     ROUTINE MACRO     ROUTINE MACRO     ROUTINE MACRO* 14600020
         SPACE 2                                                        14650020
         MACRO                                                          14700020
&NAME    ROUTINE &LOGITEM,&RNAME                                        14750020
         GBLC  &DSECT,&CSECT                                            14800020
         GBLC  &ITEM(1500)                                              14850020
         GBLA  &SHIFT(1500),&ITEMNBR                                    14900020
         GBLA  &NRENTS                                                  14950020
         LCLA  &ISHIFT,&NDX                                             15000020
.LOOP    ANOP                                                           15050020
&NDX     SETA  &NDX+1                                                   15100020
         AIF   ('&ITEM(&NDX)' EQ '&LOGITEM').FOUND                      15150020
         AIF   (&NDX LT &ITEMNBR).LOOP                                  15200020
         MNOTE *,'LOG ITEM NOT DEFINED'                                 15250020
         MEXIT                                                          15300020
.FOUND   ANOP                                                           15350020
&ISHIFT  SETA  &SHIFT(&NDX)                                             15400020
&NAME    DC    AL.12(&LOGITEM-&DSECT),XL.4'D'                           15450020
         DC    AL.4(&ISHIFT),AL.12(&RNAME-&CSECT)                       15500020
&NRENTS  SETA  &NRENTS+1                                                15550020
         MEND                                                           15600020
         EJECT                                                          15650020
*  LABEL MACRO     LABEL MACRO     LABEL MACRO     LABEL MACRO        * 15700020
         SPACE 2                                                        15750020
         MACRO                                                          15800020
&NAME    LABEL &LABEL1,&LABEL2,&LABEL3,&LABEL4,&LABEL5,&LABEL6,        C15850020
               &LABEL7,&LABEL8                                          15900020
.*                            THIS MACRO ALLOWS UP TO ACHT LABELS TO    15950020
.*                                 BE SPECIFIED FOR A GIVEN LINE. THE   16000020
.*                                 LABELS SHOULD BE ENCLOSED IN QUOTA-  16050020
.*                                 TION MARKS. THE COLUMN AND LINE END  16100020
.*                                 CONTROLS WILL BE INSERTED BY THE     16150020
.*                                 MACRO. OMITTED OPERANDS MEAN NO      16200020
.*                                 LABEL REQUIRED FOR RESPECTIVE        16250020
.*                                 COLUMN. THIS MACRO WILL ALSO ALERT   16300020
.*                                 THE PROGRAMMER TO EXACTLY WHERE THE  16350020
.*                                 TABLE MUST BE BROKEN IF NECESSARY    16400020
.*                                 TO AVOID EXCEEDING THE MAXIMUM LIMIT 16450020
         GBLC &LABELS(2000)                                             16500020
         GBLC  &LBL(100)                                                16550020
         GBLA  &LBLCTR(100)                                             16600020
         GBLA  &LABELNR                                                 16650020
         GBLA  &NRENTS,&LPTR                                            16700020
         LCLC  &MARGIN,&TACK                                            16750020
         LCLC  &TEXT                                                    16800020
         LCLA  &OP,&K,&START,&NRCHAR,&REMAIN                            16850020
&MARGIN  SETC  '*'                                                      16900020
         AIF   ('&NAME' EQ '').LOOPOUT                                  16950020
&LPTR    SETA  &LPTR+1                                                  17000020
&LBL(&LPTR) SETC '&NAME'                                                17050020
&LBLCTR(&LPTR) SETA &LABELNR+1                                          17100020
.LOOPOUT ANOP                                                           17150020
&OP      SETA  &OP+1                                                    17200020
&K       SETA  K'&SYSLIST(&OP)                                          17250020
         AIF (&K GE 2).NORM                                             17300020
&K       SETA  2                                                        17350020
.NORM    ANOP                                                           17400020
&START   SETA  2                                                        17450020
         AIF (&OP LT N'&SYSLIST).NOTLAST                                17500020
&MARGIN  SETC  '$'                                                      17550020
.NOTLAST ANOP                                                           17600020
&NRCHAR  SETA  8                                                        17650020
&TACK    SETC  ''                                                       17700020
.LOOPIN  ANOP                                                           17750020
&REMAIN  SETA  &K-&START                                                17800020
         AIF (&REMAIN GE 8).MORE                                        17850020
&TACK    SETC  '&MARGIN'                                                17900020
&NRCHAR  SETA  &REMAIN                                                  17950020
.MORE    ANOP                                                           18000020
&TEXT    SETC  ''                                                       18050020
         AIF (&REMAIN EQ 0).ENDTEXT                                     18100020
&TEXT    SETC  '&SYSLIST(&OP)'(&START,&NRCHAR)                          18150020
.ENDTEXT ANOP                                                           18200020
&LABELNR SETA  &LABELNR+1                                               18250020