      TITLE  'IFCECUA1 CUA THRESHOLDS AND PERM ERRROR SUMMARY MODULE'   00080042
*                                  THIS MODULE IS DESIGNED TO SUPPORT   00160042
*                                  THE DASDI/TAPE EREP ENHANCEMENTS.    00240042
*                                                              @Z40NIVS 00320042
         MACRO                                                          00400042
&NAME    DSGEN                                                          00480042
.*                            THIS MACRO GENERATES ONE DSECT WORD       00560042
.*                                 FORMATTED FOR THE SUBJECT LOG RECORD 00640042
.*                                 EACH OPERAND HAS TWO SUB LISTS. THE  00720042
.*                                 FIRST IS THE NAME OF THE LOG ITEM    00800042
.*                                 WHILE THE SECOND IS THE # OF BITS TO 00880042
.*                                 ALLOCATE FOR THIS ITEM. ITEMS MUST   00960042
.*                                 BE DEFINED CONTIGUOUSLY WITHOUT GAPS 01040042
.*                                 UNUSED BIT GROUPS MUST BE GIVEN      01120042
.*                                 DUMMY NAMES. THE NAMES PROVIDED FOR  01200042
.*                                 THE LOG ITEMS MAY THEN BE USED IN    01280042
.*                                 THE CONVERSION MACRO INSTRUCTIONS.   01360042
         GBLC &ITEM(1000)                                               01440042
         GBLA &ITEMNBR,&BITS(1000),&SHIFT(1000)                         01520042
         LCLB  &ONLY1,&CTIND                                            01600042
         LCLA  &START1,&START2,&END1,&END2                              01680042
         LCLC  &SYMBOL,&EQUSYM                                          01760042
         LCLA  &OP,&COUNT,&BYTE,&EQUCNT                                 01840042
         ACTR  100000                                                   01920042
.START   AIF   (N'&SYSLIST(&OP+1) LT 3).LOOP                            02000042
         AIF   ('&SYSLIST(&OP+1,3)' EQ 'EQU').LOOP     TEST FOR EQU     02080042
  AIF   ('&SYSLIST(&OP+1,3)' EQ '' AND '&SYSLIST(&OP+1,4)' EQ '').ERR1  02160042
  AIF   ('&SYSLIST(&OP+1,3)' EQ '' OR '&SYSLIST(&OP+1,4)' EQ '').ERR1   02240042
         AIF   ('&SYSLIST(&OP+1,3)' GT '&SYSLIST(&OP+1,4)').ERR3        02320042
&START1  SETA  &SYSLIST(&OP+1,3)        GET START COUNT OF ONE          02400042
&START2  SETA  &SYSLIST(&OP+1,4)        GET FIRST END COUNT             02480042
         AGO   .SET2A                   BRANCH AROUND                   02560042
.ERR1    MNOTE '**FIRST SYMBOL CONCATENATION INCOMPLETE**' @Z40NIVS     02640042
         MEXIT                                                          02720042
.SET2A   AIF   ('&SYSLIST(&OP+1,5)' EQ ''AND '&SYSLIST(&OP+1,6)' EQ '' X02800042
               ).SET2                   TEST FOR NO SECOND              02880042
  AIF   ('&SYSLIST(&OP+1,5)' EQ '' OR '&SYSLIST(&OP+1,6)' EQ '').ERR2   02960042
         AIF   ('&SYSLIST(&OP+1,5)' GT '&SYSLIST(&OP+1,6)').ERR3        03040042
&END1    SETA  &SYSLIST(&OP+1,5)        GET START COUNT OF 2            03120042
&END2    SETA  &SYSLIST(&OP+1,6)        GET END COUNT OF 2              03200042
         AGO   .LOOP                                                    03280042
.SET2    ANOP                                                           03360042
&ONLY1   SETB  1               INDICATE ONLY ONE CONCATENATION          03440042
         AGO   .LOOP                                                    03520042
.ERR2    MNOTE '**SECOND SYMBOL CONCATENATION INCOMPLETE**'             03600042
         MEXIT                                                          03680042
.ERR3    MNOTE '**START GREATER THAN END CONCATENATION**'               03760042
         MEXIT                                                          03840042
.LOOP    ANOP                                                           03920042
&OP      SETA  &OP+1                                                    04000042
         AIF   (&OP GT N'&SYSLIST).DONE      TEST IF ALL DONE           04080042
&ITEMNBR SETA  &ITEMNBR+1                                               04160042
         AIF   ('&SYSLIST(&OP,2)' NE '').OK1                            04240042
         MNOTE '**NULL BIT COUNT FIELD**'                               04320042
         MEXIT                                                          04400042
.OK1     ANOP                                                           04480042
&SYMBOL  SETC  '&SYSLIST(&OP,1)'                                        04560042
         AIF   ('&SYMBOL' NE '').OK                                     04640042
*              *****     LOG ITEM SYMBOL NOT PROVIDED     *****         04720042
         AIF   ('&SYSLIST(&OP,3)' NE 'EQU').CNT                         04800042
         AGO   .START                   GET NEXT                        04880042
.OK      AIF   (N'&SYSLIST(&OP) LT 3).NO3    TEST FOR OLD FORMAT        04960042
         AIF   ('&SYSLIST(&OP,3)' EQ 'EQU').EQU   TEST FOR EQU          05040042
         AIF   (&ONLY1).OK2             TEST FOR ONLY ONE CONCAT        05120042
&SYMBOL  SETC  '&SYMBOL.&START1.&END1'       GET 1 AND 2 CONCAT         05200042
         AGO   .NO3                     BRANCH AROUND                   05280042
.OK2     ANOP                                                           05360042
&SYMBOL  SETC  '&SYMBOL.&START1'        GET 1 CONCATENATED              05440042
.NO3     ANOP                                                           05520042
&SYMBOL  EQU   *+&BYTE                                                  05600042
&ITEM(&ITEMNBR) SETC '&SYMBOL'          GET LABEL IN GLOBAL             05680042
&BITS(&ITEMNBR) SETA &SYSLIST(&OP,2)                                    05760042
&SHIFT(&ITEMNBR) SETA &COUNT-&BYTE*8                                    05840042
.CNT     ANOP                                                           05920042
&CTIND   SETB  1                        SET COUNT INDICATOR             06000042
&COUNT   SETA  &COUNT+&SYSLIST(&OP,2)                                   06080042
&BYTE    SETA  &COUNT/8                                                 06160042
         AIF   (N'&SYSLIST(&OP) LT 3).START  TEST FOR OLD FORMAT        06240042
         AIF   (&ONLY1).TSTST           TEST FOR ONLY ONE CONCAT        06320042
         AIF   (&END1 EQ &END2).TSTST   TEST FOR SECOND END             06400042
&END1    SETA  &END1+1                  INCREMENT COUNT                 06480042
&OP      SETA  &OP-1                    DECREMENT INCREMENT             06560042
         AGO   .LOOP                    GENERATE NEXT                   06640042
.TSTST   ANOP                                                           06720042
         AIF   (&START1 EQ &START2).LPDONE   TEST FOR END               06800042
         AIF   (&ONLY1).NSET1           TEST FOR ONLY ONE CONCAT        06880042
&END1    SETA  &SYSLIST(&OP,5)          RE-INIT SECOND START COUNT      06960042
.NSET1   ANOP                                                           07040042
&OP      SETA  &OP-1                    DECREMENT INDEX                 07120042
&START1  SETA  &START1+1                INCREMENT FIRST COUNT           07200042
         AGO   .LOOP                    GO DO NEXT                      07280042
.LPDONE  ANOP                                                           07360042
&ONLY1   SETB  0                        CLEAR INDICATOR                 07440042
         AGO   .START                   GO TEST FOR MORE SUB-LISTS      07520042
.DONE    AIF   (&COUNT-&COUNT/8*8 NE 0).ERR  TEST FOR MULTIPLE OF EIGHT 07600042
         AIF   (&CTIND EQ 0).END        NO DS IF NO COUNT               07680042
&COUNT   SETA  &COUNT/8                 GET NUMBER OF BYTES             07760042
&NAME    DS    &COUNT.C                                                 07840042
.END     MEXIT                                                          07920042
.ERR     MNOTE '**BIT COUNT FLDS DO NOT TOTAL MULTIPLE OF 8**'          08000042
         MEXIT                                                          08080042
.EQU     AIF   ('&SYSLIST(&OP,4)' NE '').EQU1     TEST FOR NULL LABEL   08160042
.ERR4    MNOTE '**EQU OPERAND OMITTED OR NOT FOUND**'                   08240042
         MEXIT                                                          08320042
.EQU1    AIF   (&SYSLIST(&OP,2) LT 16).EQU2  COUNT OVER FIFTEEN         08400042
*****               THE FOLLOWING STATEMENT                *****        08480042
*****     NUMBER OF BITS EXCEED 15 - DO NOT USE AS BIN     *****        08560042
.EQU2    ANOP                                                           08640042
&EQUCNT  SETA  0                        CLEAR COUNTER                   08720042
&EQUSYM  SETC  '&SYSLIST(&OP,4)'        GET EQU OPERAND                 08800042
.EQULOP  ANOP                                                           08880042
&EQUCNT  SETA  &EQUCNT+1                INCREMENT INDEX                 08960042
         AIF   ('&ITEM(&EQUCNT)' EQ '&EQUSYM').EQUOUT  LABEL FOUND?     09040042
         AIF   (&EQUCNT EQ &ITEMNBR).ERR3    ALL TESTED?                09120042
         AGO   .EQULOP                  NO-GET NEXT                     09200042
.EQUOUT  ANOP                                                           09280042
&ITEM(&ITEMNBR) SETC '&SYMBOL'          GET LABEL NAME                  09360042
&BITS(&ITEMNBR) SETA &SYSLIST(&OP,2)    GET NUMBER OF BITS              09440042
&SHIFT(&ITEMNBR) SETA &SHIFT(&EQUCNT)   GET SHIFT COUNT                 09520042
&SYMBOL  EQU   &EQUSYM                  THIS SYMBOL EQUATED             09600042
         AGO   .START                   RETURN FOR NEXT                 09680042
         MEND                                                           09760042
*  LINE MACRO     LINE MACRO     LINE MACRO     LINE MACRO            * 09840042
         SPACE 2                                                        09920042
         MACRO                                                          10000042
&NAME    LINE  &DATA,&LABEL,&SKIP=                                      10080042
.*                            THIS MACRO ESTABLISHES THE MARGINS OR     10160042
.*                                 COLUMN SETTINGS FOR EACH LINE. IT    10240042
.*                                 GENERATES NECESSARY CARRIAGE CONTROL 10320042
.*                                 ENTRIES. LASTLY IT DETERMINES THE    10400042
.*                                 NUMBER OF ENTRIES ASSOCIATED WITH    10480042
.*                                 THE PREVIOUS LINE AND STORES THAT #  10560042
.*                                 INTO THE APPROPRIATE BYTE.           10640042
.*                            &DATA(1) - CHARACTER POSITION TO BEGIN    10720042
.*                                 DATA.                                10800042
.*                            &DATA(2) - # OF SPACES BETWEEN SUCCESSIVE 10880042
.*                                 DATA COLUMN STARTING CHARACTERS.     10960042
.*                            &LABEL(1) - CHAR. POS. TO BEGIN LABELS.   11040042
.*                            &LABEL(2) - # SPACES BETWEEN LINE'S LABEL 11120042
.*                                 STARTING CHARACTERS.                 11200042
.*                            &SKIP= - # OF LINES TO ADVANCE CARRIAGE   11280042
.*                                 TO BEGIN NEXT PRINTED LINE.          11360042
.*                            NEW ENTRIES ARE GENERATED ONLY WHEN       11440042
.*                                 NECESSARY. OMISSION OF ITEMS MEANS   11520042
.*                                 THEY HAVE NOT CHANGED SINCE PREVIOUS 11600042
.*                                 SETTINGS. A LINE MACRO IS REQUIRED   11680042
.*                                 FOR EACH PRINTED LINE. IF NO SETTING 11760042
.*                                 CHANGES ARE REQUIRED ALL OPERANDS    11840042
.*                                 ARE OMITTED IN WHICH CASE ONLY THE   11920042
.*                                 # OF ENTRIES FOR THE PREVIOUS LINE   12000042
.*                                 IS COMPUTED. THIS MACRO MUST BE THE  12080042
.*                                 FIRST MACRO INSTRUCTION ISSUED FOR   12160042
.*                                 THE SUBJECT LINE                     12240042
         GBLA  &DB,&DT,&LB,&LT,&NRENTS                                  12320042
         GBLA  &LASTCC,&INITIAL                                         12400042
         GBLC  &NRENTSX                                                 12480042
         GBLC  &CARRCON                                                 12560042
         GBLB  &TEST                                                    12640042
         LCLA  &S                                                       12720042
&NAME    DS    0C                                                       12800042
         AIF   (&INITIAL EQ 0).FIRSTLN                                  12880042
         LINEND                                                         12960042
         AGO   .NTFIRST                                                 13040042
.FIRSTLN ANOP                                                           13120042
&NRENTSX SETC  'N&SYSNDX'                                               13200042
&INITIAL SETA  1                                                        13280042
N&SYSNDX EQU   *                                                        13360042
.NTFIRST ANOP                                                           13440042
         DC    AL1(0)                                                   13520042
         AIF   ('&DATA(1)' EQ '').CKDTABS                               13600042
         AIF   (&DATA(1) EQ &DB).CKDTABS                                13680042
&DB      SETA  &DATA(1)                                                 13760042
         AGO   .AA                                                      13840042
.CKDTABS AIF   ('&DATA(2)' EQ '').NCDATA                                13920042
         AIF   (&DATA(2) EQ &DT).NCDATA                                 14000042
         AGO   .CC                                                      14080042
.AA      AIF   ('&DATA(2)' EQ '').BB                                    14160042
         AIF   (&DATA(2) EQ &DT).BB                                     14240042
.CC      ANOP                                                           14320042
&DT      SETA  &DATA(2)                                                 14400042
.BB      DC    XL2'FFFE'                                                14480042
         DC    FL1'&DB'                                                 14560042
         DC    FL1'&DT'                                                 14640042
&NRENTS  SETA  &NRENTS+1                                                14720042
.NCDATA  ANOP                                                           14800042
         AIF   ('&LABEL(1)' EQ '').CKLTABS                              14880042
         AIF   (&LABEL(1) EQ &LB).CKLTABS                               14960042
&LB      SETA  &LABEL(1)                                                15040042
         AGO   .AAA                                                     15120042
.CKLTABS AIF   ('&LABEL(2)' EQ '').NCLABEL                              15200042
         AIF   (&LABEL(2) EQ &LT).NCLABEL                               15280042
         AGO   .CCC                                                     15360042
.AAA     AIF   ('&LABEL(2)' EQ '').BBB                                  15440042
         AIF   (&LABEL(2) EQ &LT).BBB                                   15520042
.CCC     ANOP                                                           15600042
&LT      SETA  &LABEL(2)                                                15680042
.BBB     DC    XL2'FFFF'                                                15760042
         DC    FL1'&LB'                                                 15840042
         DC    FL1'&LT'                                                 15920042
&NRENTS  SETA  &NRENTS+1                                                16000042
.NCLABEL ANOP                                                           16080042
         AIF   ('&SKIP' NE '').CONT                                     16160042
         AIF   (&TEST EQ 0).NOCHANG                                     16240042
&S       SETA  &LASTCC                                                  16320042
         AGO   .DEFAULT                                                 16400042
.CONT    ANOP                                                           16480042
         AIF   (&TEST EQ 0).AB                                          16560042
&S       SETA  &SKIP                                                    16640042
.DEFAULT ANOP                                                           16720042
         ORG   &CARRCON+3                                               16800042
         DC    AL.3(0),AL.2(&S),AL.3(1)                                 16880042
         ORG                                                            16960042
&LASTCC  SETA  &S                                                       17040042
&TEST    SETB  0                                                        17120042
         AGO   .DD                                                      17200042
.AB      AIF   (&SKIP EQ &LASTCC).NOCHANG                               17280042
A&SYSNDX DC    XL2'FFFB'                                                17360042
         DC    AL.3(0),AL.2(&SKIP),AL.3(1)                              17440042
         DC    FL1'9'                                                   17520042
&LASTCC  SETA  &SKIP                                                    17600042
&TEST    SETB  1                                                        17680042
&CARRCON SETC  'A&SYSNDX'                                               17760042
&NRENTS  SETA  &NRENTS+1                                                17840042
.DD      ANOP                                                           17920042
.NOCHANG ANOP                                                           18000042
         MEND                                                           18080042
         EJECT                                                          18160042
*  BIN MACRO     BIN MACRO     BIN MACRO     BIN MACRO     BIN MACRO  * 18240042
         SPACE 2                                                        18320042
         MACRO                                                          18400042
         BIN   &LOGITEM,&SKIP$OR                                        18480042
.*                                 &LOGITEM - NAME OF ITEM IN LOG       18560042
.*                                      RECORD DSECT                    18640042
.*                                 &SKIP$OR - NBR OF SPACES TO SKIP ON  18720042
.*                                 MULTIPLE PRINT OR NBR OF SPACES      18800042
.*                                      TO BACK UP FROM COLUMN FOR      18880042
.*                                      START OF PRINTING. THE LETTER   18960042
.*                                      B PRECEEDS THE NUMBER (B5) IF   19040042
.*                                      THE LATTER IS DESIRED. OMISSION 19120042
.*                                      OF THIS OPERAND FORCES OPTION 2 19200042
.*                                      WITH BACKUP SPACING EQUAL TO    19280042
.*                                 THE NUMBER OF BITS IN THE ITEM       19360042
.*                                 DEFINITION (VIA MACRO 'DSGEN').      19440042
.*                            A LIMIT OF 15 BITS IS IMPOSED FOR THE     19520042
.*                                 TOTAL NUMBER OF BITS TO PRINT.       19600042
         GBLC &ITEM(1000)                                               19680042
         GBLA &ITEMNBR,&BITS(1000),&SHIFT(1000),&NRENTS                 19760042
         GBLC  &DSECT                                                   19840042
         LCLB  &B                                                       19920042
         LCLA  &IBITS,&NDX,&ISHIFT,&K                                   20000042
         LCLA  &TEMP,&T                                                 20080042
         LCLC  &S                                                       20160042
.LOOP    ANOP                                                           20240042
&NDX     SETA  &NDX+1                                                   20320042
         AIF   ('&ITEM(&NDX)' EQ '&LOGITEM').FOUND                      20400042
         AIF   (&NDX LT &ITEMNBR).LOOP                                  20480042
         MNOTE *,'YOU BLEW IT'                                          20560042
         ROUTINE DUM,SKIPPER                                            20640042
         MEXIT                                                          20720042
.FOUND   ANOP                                                           20800042
&ISHIFT  SETA  &SHIFT(&NDX)                                             20880042
&IBITS   SETA  &BITS(&NDX)                                              20960042
&T       SETA  &IBITS-1                                                 21040042
&B       SETB  0                                                        21120042
         AIF   ('&SKIP$OR' EQ '').BACKUP                                21200042
&K       SETA  K'&SKIP$OR                                               21280042
&B       SETB  ('&SKIP$OR'(1,1) EQ 'B')                                 21360042
&S       SETC  '&SKIP$OR'(&B+1,&K-&B)                                   21440042
&T       SETA  &S                                                       21520042
.BACKUP  ANOP                                                           21600042
&NRENTS  SETA  &NRENTS+1                                                21680042
&TEMP    SETA  &ISHIFT                                                  21760042
A&SYSNDX DC    AL.12(&LOGITEM-&DSECT),XL.4'&TEMP'                       21840042
         AIF (&IBITS EQ 1 AND &B EQ 0).OUT                              21920042
         ORG   A&SYSNDX                                                 22000042
&B       SETB  1                                                        22080042
         DC    AL.12(&LOGITEM-&DSECT),XL.4'C'                           22160042
         DC    BL.1'&B',AL.7(&T),AL.4(&IBITS),FL.4'&ISHIFT'             22240042
.OUT     ANOP                                                           22320042
         MEND                                                           22400042
         EJECT                                                          22480042
*  HEX MACRO     HEX MACRO     HEX MACRO    HEXN MACRO     HEX MACRO  * 22560042
         SPACE 2                                                        22640042
         MACRO                                                          22720042
         HEX   &LOGITEM,&SKIP$OR,&BYTES                                 22800042
.*                            THIS MACRO FACILITATES GENERATION OF THE  22880042
.*                                 TABLE ENTRIES SPECIFYING HEX TYPE    22960042
.*                                 CONVERSIONS.                         23040042
.*                            &LOGITEM - NAME OF DATA ITEM TO BE        23120042
.*                                 CONVERTED                            23200042
.*                            &SKIP$OR - NUMBER OF SPACES TO SKIP ON    23280042
.*                                 MULTIPLE PRINT OR NBR OF SPACES TO   23360042
.*                                 BACK UP FROM COLUMN FOR START OF     23440042
.*                                 PRINTING. THE LETTER B PRECEEDS THE  23520042
.*                                 NUMBER (B8) IF THE LATTER OPTION IS  23600042
.*                                 DESIRED. OMISSION OF THIS OPERAND    23680042
.*                                 FORCES OPTION 2 WITH BACKUP SPACING  23760042
.*                                 EQUAL TO THE NUMBER OF BYTES SPECI-  23840042
.*                                 FIED BY THE NEXT OPERAND (TWICE THIS 23920042
.*                                 NUMBER IF SUFFIX IS EXPLICITLY OR    24000042
.*                                 IMPLICITLY B).                       24080042
.*                            &BYTES - NUMBER OF TOTAL INPUT BYTES TO   24160042
.*                                 PROCESS. THIS NUMBER IS SUFFIXED     24240042
.*                                 WITH AN L,R, OR B TO STIPULATE       24320042
.*                                 PRINTING OF THE LEFT HALF, RIGHT     24400042
.*                                 HALF, OR BOTH HALVES OF THE BYTE     24480042
.*                                 RESPECTIVELY. OMISSION OF THIS       24560042
.*                                 OPERAND DEFAULTS TO B WITH THE NUM-  24640042
.*                                 BER OF BYTES EQUAL TO THE ITEM LNGTH 24720042
.*                            A NEW ENTRY IS GENERATED ONLY WHEN NECES- 24800042
.*                                 SARY. THIS MACRO MUST BE THE FIRST   24880042
.*                                 MACRO INSTRUCTION ISSUED FOR THE     24960042
.*                                 SUBJECT LINE(S).                     25040042
         GBLC &ITEM(1000),&DSECT                                        25120042
         GBLA &ITEMNBR,&BITS(1000),&SHIFT(1000),&NRENTS                 25200042
         LCLB  &B                                                       25280042
         LCLA  &IBITS,&NDX,&ISHIFT,&K,&T,&CODE,&BYTESP                  25360042
         LCLC  &S,&LETTER                                               25440042
.LOOP    ANOP                                                           25520042
&NDX     SETA  &NDX+1                                                   25600042
         AIF   ('&ITEM(&NDX)' EQ '&LOGITEM').FOUND                      25680042
         AIF   (&NDX LT &ITEMNBR).LOOP                                  25760042
         MNOTE *,'LOG ITEM NOT DEFINED'                                 25840042
         MEXIT                                                          25920042
.FOUND   ANOP                                                           26000042
&ISHIFT  SETA  &SHIFT(&NDX)                                             26080042
&IBITS   SETA  &BITS(&NDX)                                              26160042
&CODE    SETA  1                                                        26240042
&K       SETA  K'&BYTES                                                 26320042
         AIF   (&IBITS-(&IBITS/4)*4 EQ 0).OK                            26400042
         MNOTE *,'BIT LENGTH SPECIFICATION INCONSISTENT WITH CONTROL'   26480042
         MEXIT                                                          26560042
.OK      AIF   ('&BYTES' EQ '').USEDEFN                                 26640042
&LETTER  SETC  '&BYTES'(&K,1)                                           26720042
&S       SETC  '&BYTES'(1,&K-1)                                         26800042
&BYTESP  SETA  &S                                                       26880042
         AIF   ('&LETTER' EQ 'B').BOTH                                  26960042
         AIF   (&ISHIFT EQ 0 OR &ISHIFT EQ 4).OK2                       27040042
.ERR     MNOTE *,'DATA NOT ALLIGNED ON HEX OR BYTE BOUNDARY'            27120042
         MEXIT                                                          27200042
.USEDEFN ANOP                                                           27280042
&BYTESP  SETA  &IBITS/8                                                 27360042
.BOTH    AIF   (&ISHIFT NE 0).ERR                                       27440042
&CODE    SETA  3                                                        27520042
&T       SETA  &BYTESP*2-1                                              27600042
&S       SETC  '&T'                                                     27680042
.OK2     AIF   (&ISHIFT EQ 0).L                                         27760042
&CODE    SETA  2                                                        27840042
.L       ANOP                                                           27920042
&B       SETB  1                                                        28000042
         AIF   ('&SKIP$OR' EQ '').BACKUP                                28080042
&K       SETA  K'&SKIP$OR                                               28160042
&B       SETB  ('&SKIP$OR'(1,1) EQ 'B')                                 28240042
&S       SETC  '&SKIP$OR'(&B+1,&K-&B)                                   28320042
.BACKUP  ANOP                                                           28400042
&NRENTS  SETA  &NRENTS+1                                                28480042
         DC    AL.12(&LOGITEM-&DSECT),XL.4'A'                           28560042
         DC    BL.1'&B',FL.7'&S',FL.4'&BYTESP',FL.4'&CODE'              28640042
.OUT     ANOP                                                           28720042
         MEND                                                           28800042
         SPACE 2                                                        28880042
*  ROUTINE MACRO     ROUTINE MACRO     ROUTINE MACRO     ROUTINE MACRO* 28960042
         SPACE 2                                                        29040042
         MACRO                                                          29120042
&NAME    ROUTINE &LOGITEM,&RNAME                                        29200042