       TITLE   'IFCETRN1 FOR EREP SUPPORT OF 3705/27RN'                 00090002
         EJECT                                                          00180002
*  DSGEN MACRO     DSGEN MACRO     DSGEN MACRO     DSGEN MACRO        * 00270002
         SPACE 2                                                        00360002
*  DSGEN MACRO     DSGEN MACRO     DSGEN MACRO     DSGEN MACRO        * 00450002
         SPACE 2                                                        00540002
         MACRO                                                          00630002
&NAME    DSGEN                                                          00720002
.*                            THIS MACRO GENERATES ONE DSECT WORD       00810002
.*                                 FORMATTED FOR THE SUBJECT LOG RECORD 00900002
.*                                 EACH OPERAND HAS TWO SUB LISTS. THE  00990002
.*                                 FIRST IS THE NAME OF THE LOG ITEM    01080002
.*                                 WHILE THE SECOND IS THE # OF BITS TO 01170002
.*                                 ALLOCATE FOR THIS ITEM. ITEMS MUST   01260002
.*                                 BE DEFINED CONTIGUOUSLY WITHOUT GAPS 01350002
.*                                 UNUSED BIT GROUPS MUST BE GIVEN      01440002
.*                                 DUMMY NAMES. THE NAMES PROVIDED FOR  01530002
.*                                 THE LOG ITEMS MAY THEN BE USED IN    01620002
.*                                 THE CONVERSION MACRO INSTRUCTIONS.   01710002
         GBLC &ITEM(1000)                                               01800002
         GBLA &ITEMNBR,&BITS(1000),&SHIFT(1000)                         01890002
         LCLB  &ONLY1,&CTIND                                            01980002
         LCLA  &START1,&START2,&END1,&END2                              02070002
         LCLC  &SYMBOL,&EQUSYM                                          02160002
         LCLA  &OP,&COUNT,&BYTE,&EQUCNT                                 02250002
         ACTR  100000                                                   02340002
.START   AIF   (N'&SYSLIST(&OP+1) LT 3).LOOP                            02430002
         AIF   ('&SYSLIST(&OP+1,3)' EQ 'EQU').LOOP     TEST FOR EQU     02520002
  AIF   ('&SYSLIST(&OP+1,3)' EQ '' OR '&SYSLIST(&OP+1,4)' EQ '').ERR1   02610002
         AIF   ('&SYSLIST(&OP+1,3)' GT '&SYSLIST(&OP+1,4)').ERR3        02700002
&START1  SETA  &SYSLIST(&OP+1,3)        GET START COUNT OF 1            02790002
&START2  SETA  &SYSLIST(&OP+1,4)        GET FIRST END COUNT             02880002
         AGO   .SET2A                   BRANCH AROUND                   02970002
.ERR1    MNOTE '**FIRST SYMBOL CONCATENATION INCOMPLETE**'              03060002
         MEXIT                                                          03150002
.SET2A   AIF   ('&SYSLIST(&OP+1,5)' EQ ''AND '&SYSLIST(&OP+1,6)' EQ '' X03240002
               ).SET2                   TEST FOR NO SECOND              03330002
  AIF   ('&SYSLIST(&OP+1,5)' EQ '' OR '&SYSLIST(&OP+1,6)' EQ '').ERR2   03420002
         AIF   ('&SYSLIST(&OP+1,5)' GT '&SYSLIST(&OP+1,6)').ERR3        03510002
&END1    SETA  &SYSLIST(&OP+1,5)        GET START COUNT OF 2            03600002
&END2    SETA  &SYSLIST(&OP+1,6)        GET END COUNT OF 2              03690002
         AGO   .LOOP                                                    03780002
.SET2    ANOP                                                           03870002
&ONLY1   SETB  1                        INDICATE ONLY ONE CONCATENATION 03960002
         AGO   .LOOP                                                    04050002
.ERR2    MNOTE '**SECOND SYMBOL CONCATENATION INCOMPLETE**'             04140002
         MEXIT                                                          04230002
.ERR3    MNOTE '**START GREATER THAN END CONCATENATION**'               04320002
         MEXIT                                                          04410002
.LOOP    ANOP                                                           04500002
&OP      SETA  &OP+1                                                    04590002
         AIF   (&OP GT N'&SYSLIST).DONE      TEST IF ALL DONE           04680002
&ITEMNBR SETA  &ITEMNBR+1                                               04770002
         AIF   ('&SYSLIST(&OP,2)' NE '').OK1                            04860002
         MNOTE '**NULL BIT COUNT FIELD**'                               04950002
         MEXIT                                                          05040002
.OK1     ANOP                                                           05130002
&SYMBOL  SETC  '&SYSLIST(&OP,1)'                                        05220002
         AIF   ('&SYMBOL' NE '').OK                                     05310002
*              *****     LOG ITEM SYMBOL NOT PROVIDED     *****         05400002
         AIF   ('&SYSLIST(&OP,3)' NE 'EQU').CNT                         05490002
         AGO   .START                   GET NEXT                        05580002
.OK      AIF   (N'&SYSLIST(&OP) LT 3).NO3    TEST FOR OLD FORMAT        05670002
         AIF   ('&SYSLIST(&OP,3)' EQ 'EQU').EQU   TEST FOR EQU          05760002
         AIF   (&ONLY1).OK2             TEST FOR ONLY ONE CONCAT        05850002
&SYMBOL  SETC  '&SYMBOL.&START1.&END1'       GET 1 AND 2 CONCAT         05940002
         AGO   .NO3                     BRANCH AROUND                   06030002
.OK2     ANOP                                                           06120002
&SYMBOL  SETC  '&SYMBOL.&START1'        GET 1 CONCATENATED              06210002
.NO3     ANOP                                                           06300002
&SYMBOL  EQU   *+&BYTE                                                  06390002
&ITEM(&ITEMNBR) SETC '&SYMBOL'          GET LABEL IN GLOBAL             06480002
&BITS(&ITEMNBR) SETA &SYSLIST(&OP,2)                                    06570002
&SHIFT(&ITEMNBR) SETA &COUNT-&BYTE*8                                    06660002
.CNT     ANOP                                                           06750002
&CTIND   SETB  1                        SET COUNT INDICATOR             06840002
&COUNT   SETA  &COUNT+&SYSLIST(&OP,2)                                   06930002
&BYTE    SETA  &COUNT/8                                                 07020002
         AIF   (N'&SYSLIST(&OP) LT 3).START  TEST FOR OLD FORMAT        07110002
         AIF   (&ONLY1).TSTST           TEST FOR ONLY ONE CONCAT        07200002
         AIF   (&END1 EQ &END2).TSTST   TEST FOR SECOND END             07290002
&END1    SETA  &END1+1                  INCREMENT COUNT                 07380002
&OP      SETA  &OP-1                    DECREMENT INCREMENT             07470002
         AGO   .LOOP                    GENERATE NEXT                   07560002
.TSTST   ANOP                                                           07650002
         AIF   (&START1 EQ &START2).LPDONE   TEST FOR END               07740002
         AIF   (&ONLY1).NSET1           TEST FOR ONLY ONE CONCAT        07830002
&END1    SETA  &SYSLIST(&OP,5)          RE-INIT SECOND START COUNT      07920002
.NSET1   ANOP                                                           08010002
&OP      SETA  &OP-1                    DECREMENT INDEX                 08100002
&START1  SETA  &START1+1                INCREMENT FIRST COUNT           08190002
         AGO   .LOOP                    GO DO NEXT                      08280002
.LPDONE  ANOP                                                           08370002
&ONLY1   SETB  0                        CLEAR INDICATOR                 08460002
         AGO   .START                   GO TEST FOR MORE SUB-LISTS      08550002
.DONE    AIF   (&COUNT-&COUNT/8*8 NE 0).ERR  TEST FOR MULTIPLE OF EIGHT 08640002
         AIF   (&CTIND EQ 0).END        NO DS IF NO COUNT               08730002
&COUNT   SETA  &COUNT/8                 GET NUMBER OF BYTES             08820002
&NAME    DS    &COUNT.C                                                 08910002
.END     MEXIT                                                          09000002
.ERR     MNOTE '**BIT COUNT FLDS DO NOT TOTAL MULTIPLE OF 8**'          09090002
         MEXIT                                                          09180002
.EQU     AIF   ('&SYSLIST(&OP,4)' NE '').EQU1     TEST FOR NULL LABEL   09270002
.ERR4    MNOTE '**EQU OPERAND OMITTED OR NOT FOUND**'                   09360002
         MEXIT                                                          09450002
.EQU1    AIF   (&SYSLIST(&OP,2) LT 16).EQU2  COUNT OVER FIFTEEN         09540002
*****               THE FOLLOWING STATEMENT                *****        09630002
*****     NUMBER OF BITS EXCEED 15 - DO NOT USE AS BIN     *****        09720002
.EQU2    ANOP                                                           09810002
&EQUCNT  SETA  0                        CLEAR COUNTER                   09900002
&EQUSYM  SETC  '&SYSLIST(&OP,4)'        GET EQU OPERAND                 09990002
.EQULOP  ANOP                                                           10080002
&EQUCNT  SETA  &EQUCNT+1                INCREMENT INDEX                 10170002
         AIF   ('&ITEM(&EQUCNT)' EQ '&EQUSYM').EQUOUT  LABEL FOUND?     10260002
         AIF   (&EQUCNT EQ &ITEMNBR).ERR4    ALL TESTED?                10350002
         AGO   .EQULOP                  NO-GET NEXT                     10440002
.EQUOUT  ANOP                                                           10530002
&ITEM(&ITEMNBR) SETC '&SYMBOL'          GET LABEL NAME                  10620002
&BITS(&ITEMNBR) SETA &SYSLIST(&OP,2)    GET NUMBER OF BITS              10710002
&SHIFT(&ITEMNBR) SETA &SHIFT(&EQUCNT)   GET SHIFT COUNT                 10800002
&SYMBOL  EQU   &EQUSYM                  THIS SYMBOL EQUATED             10890002
         AGO   .START                   RETURN FOR NEXT                 10980002
         MEND                                                           11070002
         EJECT                                                          11160002
         MACRO                                                          11250002
         LINEND                                                         11340002
.*                            THIS MACRO IS USED ONLY BY THE LINE       11430002
.*                                 MACRO TO SET THE NUMBER OF ENTRIES   11520002
.*                                 ASSOCIATED WITH EACH LINE.           11610002
         GBLA  &NRENTS                                                  11700002
         GBLC &NRENTSX                                                  11790002
         AIF   (&NRENTS EQ 0).NORENTS   TEST FOR NO COUNT               11880002
         ORG   &NRENTSX                                                 11970002
         DC    FL1'&NRENTS'                                             12060002
         ORG                                                            12150002
&NRENTS  SETA  0                                                        12240002
.NORENTS ANOP                                                           12330002
B&SYSNDX EQU   *                                                        12420002
&NRENTSX SETC  'B&SYSNDX'                                               12510002
         MEND                                                           12600002
         EJECT                                                          12690002
         MACRO                                                          12780002
         BIN                                                            12870002
.*                                 &SYSLIST(&OP,1) - NAME OF LOG ITEM   12960002
.*                                      RECORD DSECT                    13050002
.*                                 $SYSLIST(&OP,2) - NBR OF SPACES      13140002
.*                                      TO SKIP ON MULTIPLE             13230002
.*                                      PRINT OR NBR OF SPACES          13320002
.*                                      TO BACK UP FROM COLUMN FOR      13410002
.*                                      START OF PRINTING. THE LETTER   13500002
.*                                      B PRECEEDS THE NUMBER (B5) IF   13590002
.*                                      THE LATTER IS DESIRED. OMISSION 13680002
.*                                      OF THIS OPERAND FORCES OPTION 2 13770002
.*                                      WITH BACKUP SPACING EQUAL TO    13860002
.*                                 THE NUMBER OF BITS IN THE ITEM       13950002
.*                                 DEFINITION (VIA MACRO 'DSGEN').      14040002
.*                            A LIMIT OF 15 BITS IS IMPOSED FOR THE     14130002
.*                                 TOTAL NUMBER OF BITS TO PRINT.       14220002
         GBLA  &INITIAL                                                 14310002
         GBLB  &DIAGTST,&DIAGSET,&DIAGLIN                               14400002
         GBLC &ITEM(1000)                                               14490002
         GBLA &ITEMNBR,&BITS(1000),&SHIFT(1000),&NRENTS                 14580002
         GBLC  &DSECT                                                   14670002
         LCLB  &B,&SUB                                                  14760002
         LCLA  &IBITS,&NDX,&ISHIFT,&K                                   14850002
         LCLA  &TEMP,&T,&OP                                             14940002
         LCLC  &S                                                       15030002
         AIF   (&DIAGTST EQ 0).NOMSG                                    15120002
         AIF   (&INITIAL EQ 0).NOMSG                                    15210002
         AIF   (&DIAGLIN EQ 1).NOMSG                                    15300002
         MNOTE '**NO LINE ASSOCIATED WITH THIS DATA**'                  15390002
*****THE FOLLOWING GENERATED FOR TEST PURPOSES*****                     15480002
*        LINE                                                           15570002
         LINE                                                           15660002
.NOMSG   ANOP                                                           15750002
         AIF   (K'&SYSLIST(1) EQ K'&SYSLIST(1,1)).LOOP                  15840002
&SUB     SETB  1                                                        15930002
.LOOP    ANOP                                                           16020002
&OP      SETA  &OP+1                                                    16110002
.LOOP1   ANOP                                                           16200002
&NDX     SETA  &NDX+1                                                   16290002
         AIF   ('&ITEM(&NDX)' EQ '&SYSLIST(&OP,1)').FOUND               16380002
         AIF   (&NDX LT &ITEMNBR).LOOP1                                 16470002
         MNOTE '**LOG ITEM NOT DEFINED**'                               16560002
         MEXIT                                                          16650002
.FOUND   ANOP                                                           16740002
&ISHIFT  SETA  &SHIFT(&NDX)                                             16830002
&IBITS   SETA  &BITS(&NDX)                                              16920002
&T       SETA  &IBITS-1                                                 17010002
&B       SETB  0                                                        17100002
         AIF   (&IBITS GT 0 AND &IBITS LT 16).SUB0                      17190002
         MNOTE '**NO. OF BITS OUTSIDE RANGE OF 1-15**'                  17280002
         MEXIT                                                          17370002
.SUB0    AIF   (&SUB EQ 1).SUBA                                         17460002
         AIF   ('&SYSLIST(2)' EQ '').BACKUP                             17550002
&K       SETA  K'&SYSLIST(2)                                            17640002
&B       SETB  ('&SYSLIST(2)'(1,1) EQ 'B')                              17730002
&S       SETC  '&SYSLIST(2)'(&B+1,&K-&B)                                17820002
         AGO   .SUBB                                                    17910002
.SUBA    ANOP                                                           18000002
         AIF   ('&SYSLIST(&OP,2)' EQ '').BACKUP                         18090002
&K       SETA  K'&SYSLIST(&OP,2)                                        18180002
&B       SETB  ('&SYSLIST(&OP,2)'(1,1) EQ 'B')                          18270002
&S       SETC  '&SYSLIST(&OP,2)'(&B+1,&K-&B)                            18360002
.SUBB    ANOP                                                           18450002
&T       SETA  &S                                                       18540002
.BACKUP  ANOP                                                           18630002
&NRENTS  SETA  &NRENTS+1                                                18720002
&TEMP    SETA  &ISHIFT                                                  18810002
         AIF   (&IBITS NE 1 OR &B NE 0).BIN2                            18900002
         DC    AL.12(&SYSLIST(&OP,1)-&DSECT),XL.4'&TEMP'                18990002
         AGO   .OUT                                                     19080002
.BIN2    AIF   ('&SYSLIST(&OP,2)' NE '').BIN3                           19170002
&B       SETB  1                                                        19260002
.BIN3    ANOP                                                           19350002
         DC    AL.12(&SYSLIST(&OP,1)-&DSECT),XL.4'C'                    19440002
         DC    BL.1'&B',AL.7(&T),AL.4(&IBITS),FL.4'&ISHIFT'             19530002
.OUT     ANOP                                                           19620002
&NDX     SETA  0                                                        19710002
         AIF   (&SUB EQ 0).OUTA                                         19800002
         AIF   (&OP LT N'&SYSLIST).LOOP                                 19890002
.OUTA    ANOP                                                           19980002
         MEND                                                           20070002
         EJECT                                                          20160002
         MACRO                                                          20250002
         LSTART                                                         20340002
.*                            THIS MACRO IS ISSUED WHEN THE LABEL AREA  20430002
.*                                 OF THE TABLE IS TO BEGIN.            20520002
         GBLA  &LABELNR                                                 20610002
         GBLC  &LBL(100)                                                20700002
         GBLC &LABELS(2000)                                             20790002
         GBLA  &LBLCTR(100)                                             20880002
         GBLB  &DIAGTST,&DIAGSET,&DIAGLIN                               20970002
         LCLA  &NDX,&CTR                                                21060002
         AIF   (&DIAGTST EQ 0).NODIAG                                   21150002
         AIF   (&DIAGSET EQ 0).NODIAG                                   21240002
         MNOTE '**NO LABEL ASSOCIATED WITH LAST SET**'                  21330002
***** THE FOLLOWING GENERATED FOR TEST PURPOSES *****                   21420002
*        LABEL '%%%%%%%%%%%%%%%%%%%%%%%%%%%%%%%%%%%%%%%%%%%%%%%%'       21510002
               LABEL '%%%%%%%%%%%%%%%%%%%%%%%%%%%%%%%%%%%%%%%%%%%%%%%%' 21600002
.NODIAG  ANOP                                                           21690002
         LINEND                                                         21780002
&CTR     SETA  1                                                        21870002
.LOOP    ANOP                                                           21960002
&NDX     SETA  &NDX+1                                                   22050002
         AIF   (&LBLCTR(&CTR) NE &NDX).NOLBL                            22140002
&LBL(&CTR) DC  C'&LABELS(&NDX)'                                         22230002
&CTR     SETA  &CTR+1                                                   22320002
         AGO   .LOOPCTL                                                 22410002
.NOLBL   ANOP                                                           22500002
         DC    C'&LABELS(&NDX)'                                         22590002
.LOOPCTL AIF   (&NDX LT &LABELNR).LOOP                                  22680002
         MEND                                                           22770002
         EJECT                                                          22860002
         MACRO                                                          22950002
&NAME    ROUTINE &LOGITEM,&RNAME                                        23040002
         GBLA  &NRENTS                                                  23130002
         GBLC  &DSECT,&CSECT                                            23220002
         GBLA  &INITIAL                                                 23310002
         GBLB  &DIAGTST,&DIAGSET,&DIAGLIN                               23400002
         AIF   (&DIAGTST EQ 0).NOMSG                                    23490002
         AIF   (&INITIAL EQ 0).NOMSG                                    23580002
         AIF   (&DIAGLIN EQ 1).NOMSG                                    23670002
         MNOTE '**NO LINE ASSOCIATED WITH THIS ROUTINE**'               23760002
*****THE FOLLOWING GENERATED FOR TEST PURPOSES*****                     23850002
*        LINE                                                           23940002
         LINE                                                           24030002
.NOMSG   ANOP                                                           24120002
&NAME    DC    AL.12(&LOGITEM-&DSECT),XL.4'D'                           24210002
         DC    AL2(&RNAME-&CSECT)                                       24300002
&NRENTS  SETA  &NRENTS+1                                                24390002
         MEND                                                           24480002
         EJECT                                                          24570002
         MACRO                                                          24660002
&NAME    LINE  &DATA,&LABEL,&SKIP=                                      24750002
.*                            THIS MACRO ESTABLISHES THE MARGINS OR     24840002
.*                                 COLUMN SETTINGS FOR EACH LINE. IT    24930002
.*                                 GENERATES NECESSARY CARRIAGE CONTROL 25020002
.*                                 ENTRIES. LASTLY IT DETERMINES THE    25110002
.*                                 NUMBER OF ENTRIES ASSOCIATED WITH    25200002
.*                                 THE PREVIOUS LINE AND STORES THAT #  25290002
.*                                 INTO THE APPROPRIATE BYTE.           25380002
.*                            &DATA(1) - CHARACTER POSITION TO BEGIN    25470002
.*                                 DATA.                                25560002
.*                            &DATA(2) - # OF SPACES BETWEEN SUCCESSIVE 25650002
.*                                 DATA COLUMN STARTING CHARACTERS.     25740002
.*                            &LABEL(1) - CHAR. POS. TO BEGIN LABELS.   25830002
.*                            &LABEL(2) - # SPACES BETWEEN LINE'S LABEL 25920002
.*                                 STARTING CHARACTERS.                 26010002
.*                            &SKIP= - # OF LINES TO ADVANCE CARRIAGE   26100002
.*                                 TO BEGIN NEXT PRINTED LINE.          26190002
.*                            NEW ENTRIES ARE GENERATED ONLY WHEN       26280002
.*                                 NECESSARY. OMISSION OF ITEMS MEANS   26370002
.*                                 THEY HAVE NOT CHANGED SINCE PREVIOUS 26460002
.*                                 SETTINGS. A LINE MACRO IS REQUIRED   26550002
.*                                 FOR EACH PRINTED LINE. IF NO SETTING 26640002
.*                                 CHANGES ARE REQUIRED ALL OPERANDS    26730002
.*                                 ARE OMITTED IN WHICH CASE ONLY THE   26820002
.*                                 # OF ENTRIES FOR THE PREVIOUS LINE   26910002
.*                                 IS COMPUTED. THIS MACRO MUST BE THE  27000002
.*                                 FIRST MACRO INSTRUCTION ISSUED FOR   27090002
.*                                 THE SUBJECT LINE                     27180002
         GBLA  &DB,&DT,&LB,&LT,&NRENTS                                  27270002
         GBLA  &LASTCC,&INITIAL                                         27360002
         GBLC  &NRENTSX                                                 27450002
         GBLC  &CARRCON                                                 27540002
         GBLB  &TEST                                                    27630002
         GBLB  &DIAGTST,&DIAGSET,&DIAGLIN                               27720002
         LCLA  &S                                                       27810002
         AIF   (&INITIAL EQ 0 OR &DIAGTST EQ 0).DIAGSET                 27900002
         AIF   (&DIAGSET EQ 0).DIAGSET                                  27990002
         MNOTE '**NO LABEL ASSOCIATED WITH LAST SET**'                  28080002
***** THE FOLLOWING GENERATED FOR TEST PURPOSES *****                   28170002
*        LABEL '%%%%%%%%%%%%%%%%%%%%%%%%%%%%%%%%%%%%%%%%%%%%%%%%'       28260002
               LABEL '%%%%%%%%%%%%%%%%%%%%%%%%%%%%%%%%%%%%%%%%%%%%%%%%' 28350002
.DIAGSET ANOP                                                           28440002
&DIAGSET SETB  1                                                        28530002
&DIAGLIN SETB  1                                                        28620002
&NAME    DS    0C                                                       28710002
         AIF   (&INITIAL EQ 0).FIRSTLN                                  28800002
         LINEND                                                         28890002
         AGO   .NTFIRST                                                 28980002
.FIRSTLN ANOP                                                           29070002
&NRENTSX SETC  'N&SYSNDX'                                               29160002
&INITIAL SETA  1                                                        29250002
N&SYSNDX EQU   *                                                        29340002
.NTFIRST ANOP                                                           29430002
         DC    AL1(0)                                                   29520002
         AIF   ('&DATA(1)' EQ '').CKDTABS                               29610002
         AIF   (&DATA(1) EQ &DB).CKDTABS                                29700002
&DB      SETA  &DATA(1)                                                 29790002
         AGO   .AA                                                      29880002
.CKDTABS AIF   ('&DATA(2)' EQ '').NCDATA                                29970002
         AIF   (&DATA(2) EQ &DT).NCDATA                                 30060002
         AGO   .CC                                                      30150002
.AA      AIF   ('&DATA(2)' EQ '').BB                                    30240002
         AIF   (&DATA(2) EQ &DT).BB                                     30330002
.CC      ANOP                                                           30420002
&DT      SETA  &DATA(2)                                                 30510002
.BB      DC    XL2'FFFE'                                                30600002
         DC    FL1'&DB'                                                 30690002
         DC    FL1'&DT'                                                 30780002
&NRENTS  SETA  &NRENTS+1                                                30870002
.NCDATA  ANOP                                                           30960002
         AIF   ('&LABEL(1)' EQ '').CKLTABS                              31050002
         AIF   (&LABEL(1) EQ &LB).CKLTABS                               31140002
&LB      SETA  &LABEL(1)                                                31230002
         AGO   .AAA                                                     31320002
.CKLTABS AIF   ('&LABEL(2)' EQ '').NCLABEL                              31410002
         AIF   (&LABEL(2) EQ &LT).NCLABEL                               31500002
         AGO   .CCC                                                     31590002
.AAA     AIF   ('&LABEL(2)' EQ '').BBB                                  31680002
         AIF   (&LABEL(2) EQ &LT).BBB                                   31770002
.CCC     ANOP                                                           31860002
&LT      SETA  &LABEL(2)                                                31950002
.BBB     DC    XL2'FFFF'                                                32040002
         DC    FL1'&LB'                                                 32130002
         DC    FL1'&LT'                                                 32220002
&NRENTS  SETA  &NRENTS+1                                                32310002
.NCLABEL ANOP                                                           32400002
         AIF   ('&SKIP' NE '').CONT                                     32490002
         AIF   (&TEST EQ 0).NOCHANG                                     32580002
         AGO   .DEFALTA                                                 32670002
.CONT    ANOP                                                           32760002
         AIF   (&TEST EQ 0).AB                                          32850002