*                                                                       00070020
*                                                                       00140020
*  DSGEN MACRO     DSGEN MACRO     DSGEN MACRO     DSGEN MACRO        * 00210020
         SPACE 2                                                        00280020
         MACRO                                                          00350020
&NAME    DSGEN &X1,&X2,&X3,&X4,&X5,&X6,&X7,&X8,&X9,&X10,&X11,&X12,&X13,X00420020
               &X14,&X15,&X16,&X17,&X18,&X19,&X20,&X21,&X22,&X23,&X24, X00490020
               &X25,&X26,&X27,&X28,&X29,&X30,&X31,&X32                  00560020
.*                            THIS MACRO GENERATES ONE DSECT WORD       00630020
.*                                 FORMATTED FOR THE SUBJECT LOG RECORD 00700020
.*                                 EACH OPERAND HAS TWO SUB LISTS. THE  00770020
.*                                 FIRST IS THE NAME OF THE LOG ITEM    00840020
.*                                 WHILE THE SECOND IS THE # OF BITS TO 00910020
.*                                 ALLOCATE FOR THIS ITEM. ITEMS MUST   00980020
.*                                 BE DEFINED CONTIGUOUSLY WITHOUT GAPS 01050020
.*                                 UNUSED BIT GROUPS MUST BE GIVEN      01120020
.*                                 DUMMY NAMES. THE NAMES PROVIDED FOR  01190020
.*                                 THE LOG ITEMS MAY THEN BE USED IN    01260020
.*                                 THE CONVERSION MACRO INSTRUCTIONS.   01330020
         GBLC  &ITEM(2000)                                              01400020
         GBLA  &ITEMNBR,&BITS(2000),&SHIFT(2000)                        01470020
         LCLC  &SYMBOL                                                  01540020
         LCLA  &OP,&COUNT,&BYTE                                         01610020
.LOOP    ANOP                                                           01680020
&OP      SETA  &OP+1                                                    01750020
&ITEMNBR SETA  &ITEMNBR+1                                               01820020
&SYMBOL  SETC  '&SYSLIST(&OP,1)'                                        01890020
         AIF   ('&SYSLIST(&OP,2)' NE '').OK1                            01960020
         MNOTE 'NULL BIT COUNT FIELD'                                   02030020
         MEXIT                                                          02100020
.OK1     ANOP                                                           02170020
         AIF   ('&SYMBOL' NE '').OK                                     02240020
         MNOTE 'LOG ITEM SYMBOL NOT PROVIDED'                           02310020
         AGO   .CNT                                                     02380020
.OK      ANOP                                                           02450020
         AIF   ('&SYMBOL'(1,1) EQ '''').CNT                *TEMP*       02520020
&SYMBOL  EQU   *+&BYTE                                                  02590020
&ITEM(&ITEMNBR)  SETC '&SYSLIST(&OP,1)'                                 02660020
&BITS(&ITEMNBR) SETA &SYSLIST(&OP,2)                                    02730020
&SHIFT(&ITEMNBR) SETA &COUNT-&BYTE*8                                    02800020
.CNT     ANOP                                                           02870020
&COUNT   SETA  &COUNT+&SYSLIST(&OP,2)                                   02940020
&BYTE    SETA  &COUNT/8                                                 03010020
         AIF (&OP LT N'&SYSLIST).LOOP                                   03080020
         AIF   (&COUNT NE 32).NOT32                                     03150020
&NAME    DS    4C                                                       03220020
         MEXIT                                                          03290020
.NOT32   AIF   (&COUNT NE 64).ERR                                       03360020
&NAME    DS    8C                                                       03430020
         MEXIT                                                          03500020
.ERR     MNOTE '**BIT COUNT FIELDS DO NOT TOTAL 32 OR 64**'             03570020
         MEND                                                           03640020
*                                                                       03710020
*                                                                       03780020
         MACRO                                                          03850020
&NAME    LINE  &DATA,&LABEL,&SKIP=                                      03920020
.*                            THIS MACRO ESTABLISHES THE MARGINS OR     03990020
.*                                 COLUMN SETTINGS FOR EACH LINE. IT    04060020
.*                                 GENERATES NECESSARY CARRIAGE CONTROL 04130020
.*                                 ENTRIES. LASTLY IT DETERMINES THE    04200020
.*                                 NUMBER OF ENTRIES ASSOCIATED WITH    04270020
.*                                 THE PREVIOUS LINE AND STORES THAT #  04340020
.*                                 INTO THE APPROPRIATE BYTE.           04410020
.*                                                                      04480020
.*                                 &DATA(1) - CHARACTER POSITION TO     04550020
.*                                 BEGIN DATA.                          04620020
.*                                                                      04690020
.*                                 &DATA(2) - # OF SPACES BETWEEN       04760020
.*                                 SUCCESSIVE DATA COLUMN STARTING      04830020
.*                                 CHARACTERS.                          04900020
.*                                                                      04970020
.*                                 &LABEL(1) - CHARACTER POSITION       05040020
.*                                 TO BEGIN LABELS.                     05110020
.*                                                                      05180020
.*                                 &LABEL(2) - # OF SPACES BETWEEN      05250020
.*                                 LINE'S LABEL STARTING CHARACTERS.    05320020
.*                                                                      05390020
.*                                 &SKIP= - # OF LINES TO ADVANCE       05460020
.*                                 CARRIAGE TO BEGIN NEXT PRINTED LINE. 05530020
.*                                                                      05600020
.*                                 NEW ENTRIES ARE GENERATED ONLY WHEN  05670020
.*                                 NECESSARY. OMISSION OF ITEMS MEANS   05740020
.*                                 THEY HAVE NOT CHANGED SINCE PREVIOUS 05810020
.*                                 SETTINGS. A LINE MACRO IS REQUIRED   05880020
.*                                 FOR EACH PRINTED LINE. IF NO SETTING 05950020
.*                                 CHANGES ARE REQUIRED ALL OPERANDS    06020020
.*                                 ARE OMITTED IN WHICH CASE ONLY THE   06090020
.*                                 # OF ENTRIES FOR THE PREVIOUS LINE   06160020
.*                                 IS COMPUTED. THIS MACRO MUST BE THE  06230020
.*                                 FIRST MACRO INSTRUCTION ISSUED FOR   06300020
.*                                 THE SUBJECT LINE.                    06370020
         GBLA  &DB,&DT,&LB,&LT,&NRENTS                                  06440020
         GBLA  &LASTCC,&INITIAL                                         06510020
         GBLC  &NRENTSX                                                 06580020
         GBLC  &CARRCON                                                 06650020
         GBLB  &TEST                                                    06720020
         LCLA  &S                                                       06790020
&NAME    DS    0C                                                       06860020
         AIF   (&INITIAL EQ 0).FIRSTLN                                  06930020
         LINEND                                                         07000020
         AGO   .NTFIRST                                                 07070020
.FIRSTLN ANOP                                                           07140020
&NRENTSX SETC  'N&SYSNDX'                                               07210020
&INITIAL SETA  1                                                        07280020
N&SYSNDX EQU   *                                                        07350020
.NTFIRST ANOP                                                           07420020
         DC    AL1(0)                                                   07490020
         AIF   ('&DATA(1)' EQ '').CKDTABS                               07560020
         AIF   (&DATA(1) EQ &DB).CKDTABS                                07630020
&DB      SETA  &DATA(1)                                                 07700020
         AGO   .AA                                                      07770020
.CKDTABS AIF   ('&DATA(2)' EQ '').NCDATA                                07840020
         AIF   (&DATA(2) EQ &DT).NCDATA                                 07910020
         AGO   .CC                                                      07980020
.AA      AIF   ('&DATA(2)' EQ '').BB                                    08050020
         AIF   (&DATA(2) EQ &DT).BB                                     08120020
.CC      ANOP                                                           08190020
&DT      SETA  &DATA(2)                                                 08260020
.BB      DC    XL2'FFFE'                                                08330020
         DC    FL1'&DB'                                                 08400020
         DC    FL1'&DT'                                                 08470020
&NRENTS  SETA  &NRENTS+1                                                08540020
.NCDATA  ANOP                                                           08610020
         AIF   ('&LABEL(1)' EQ '').CKLTABS                              08680020
         AIF   (&LABEL(1) EQ &LB).CKLTABS                               08750020
&LB      SETA  &LABEL(1)                                                08820020
         AGO   .AAA                                                     08890020
.CKLTABS AIF   ('&LABEL(2)' EQ '').NCLABEL                              08960020
         AIF   (&LABEL(2) EQ &LT).NCLABEL                               09030020
         AGO   .CCC                                                     09100020
.AAA     AIF   ('&LABEL(2)' EQ '').BBB                                  09170020
         AIF   (&LABEL(2) EQ &LT).BBB                                   09240020
.CCC     ANOP                                                           09310020
&LT      SETA  &LABEL(2)                                                09380020
.BBB     DC    XL2'FFFF'                                                09450020
         DC    FL1'&LB'                                                 09520020
         DC    FL1'&LT'                                                 09590020
&NRENTS  SETA  &NRENTS+1                                                09660020
.NCLABEL ANOP                                                           09730020
         AIF   ('&SKIP' NE '').CONT                                     09800020
         AIF   (&TEST EQ 0).NOCHANG                                     09870020
&S       SETA  &LASTCC                                                  09940020
         AGO   .DEFAULT                                                 10010020
.CONT    ANOP                                                           10080020
         AIF   (&TEST EQ 0).AB                                          10150020
&S       SETA  &SKIP                                                    10220020
.DEFAULT ANOP                                                           10290020
         ORG   &CARRCON+3                                               10360020
         DC    AL.3(0),AL.2(&S),AL.3(1)                                 10430020
         ORG                                                            10500020
&LASTCC  SETA  &S                                                       10570020
&TEST    SETB  0                                                        10640020
         AGO   .DD                                                      10710020
.AB      AIF   (&SKIP EQ &LASTCC).NOCHANG                               10780020
A&SYSNDX DC    XL2'FFFB'                                                10850020
         DC    AL.3(0),AL.2(&SKIP),AL.3(1)                              10920020
         DC    FL1'9'                                                   10990020
&LASTCC  SETA  &SKIP                                                    11060020
&TEST    SETB  1                                                        11130020
&CARRCON SETC  'A&SYSNDX'                                               11200020
&NRENTS  SETA  &NRENTS+1                                                11270020
.DD      ANOP                                                           11340020
.NOCHANG ANOP                                                           11410020
         MEND                                                           11480020
*                                                                       11550020
*                                                                       11620020
*********************************************************************** 11690020
*                                                                       11760020
*                                                                       11830020
         MACRO                                                          11900020
         BIN   &LOGITEM,&SKIP$OR                                        11970020
.*                                 &LOGITEM - NAME OF ITEM IN LOG DSECT 12040020
.*                                                                      12110020
.*                                 &SKIP$OR - NUMBER OF SPACES TO SKIP  12180020
.*                                 ON MULTIPLE PRINT OR NUMBER OF       12250020
.*                                 SPACES TO BACK UP FROM COLUMN FOR    12320020
.*                                 START OF PRINTING. THE LETTER B      12390020
.*                                 PRECEEDS THE NUMBER (B5) IF THE      12460020
.*                                 LATTER IS DESIRED. OMISSION OF THIS  12530020
.*                                 OPERAND FORCES OPTION 2 WITH BACKUP  12600020
.*                                 SPACING EQUAL TO THE NUMBER OF BITS  12670020
.*                                 IN THE ITEM DEFINITION (VIA MACRO    12740020
.*                                 'DSGEN'). A LIMIT OF 15 BITS IS      12810020
.*                                 IMPOSED FOR THE TOTAL NUMBER OF BITS 12880020
.*                                 TO PRINT.                            12950020
         GBLC  &ITEM(2000)                                              13020020
         GBLA  &ITEMNBR,&BITS(2000),&SHIFT(2000),&NRENTS                13090020
         GBLC  &DSECT                                                   13160020
         LCLB  &B                                                       13230020
         LCLA  &IBITS,&NDX,&ISHIFT,&K                                   13300020
         LCLA  &TEMP,&T                                                 13370020
         LCLC  &S                                                       13440020
.LOOP    ANOP                                                           13510020
&NDX     SETA  &NDX+1                                                   13580020
         AIF   ('&ITEM(&NDX)' EQ '&LOGITEM').FOUND                      13650020
         AIF   (&NDX LT &ITEMNBR).LOOP                                  13720020
         MNOTE '**LOG ITEM NOT FOUND**'                                 13790020
         ROUTINE  DUM,SKIPPER                                           13860020
         MEXIT                                                          13930020
.FOUND   ANOP                                                           14000020
&ISHIFT  SETA  &SHIFT(&NDX)                                             14070020
&IBITS   SETA  &BITS(&NDX)                                              14140020
&T       SETA  &IBITS-1                                                 14210020
&B       SETB  0                                                        14280020
         AIF   ('&SKIP$OR' EQ '').BACKUP                                14350020
&K       SETA  K'&SKIP$OR                                               14420020
&B       SETB  ('&SKIP$OR'(1,1) EQ 'B')                                 14490020
&S       SETC  '&SKIP$OR'(&B+1,&K-&B)                                   14560020
&T       SETA  &S                                                       14630020
.BACKUP  ANOP                                                           14700020
&NRENTS  SETA  &NRENTS+1                                                14770020
&TEMP    SETA  &ISHIFT                                                  14840020
A&SYSNDX DC    AL.12(&LOGITEM-&DSECT),XL.4'&TEMP'                       14910020
         AIF   (&IBITS EQ 1 AND &B EQ 0).OUT                            14980020
         ORG   A&SYSNDX                                                 15050020
&B       SETB  1                                                        15120020
         DC    AL.12(&LOGITEM-&DSECT),XL.4'C'                           15190020
         DC    BL.1'&B',AL.7(&T),AL.4(&IBITS),FL.4'&ISHIFT'             15260020
.OUT     ANOP                                                           15330020
         MEND                                                           15400020
*                                                                       15470020
*                                                                       15540020
*********************************************************************** 15610020
*                                                                       15680020
*                                                                       15750020
         MACRO                                                          15820020
         HEX   &LOGITEM,&SKIP$OR,&BYTES                                 15890020
.*                                                                      15960020
.*                                 THIS MACRO FACILITATES GENERATION    16030020
.*                                 OF THE TABLE ENTRIES SPECIFYING HEX  16100020
.*                                 TYPE CONVERSIONS.                    16170020
.*                                                                      16240020
.*                                 &LOGITEM - NAME OF DATA ITEM TO BE   16310020
.*                                 CONVERTED.                           16380020
.*                                                                      16450020
.*                                 &SKIP$OR - NUMBER OF SPACES TO SKIP  16520020
.*                                 ON MULTIPLE PRINT OF NUMBER OF       16590020
.*                                 SPACES TO BACK UP FROM COLUMN FOR    16660020
.*                                 START OF PRINTING. THE LETTER B      16730020
.*                                 PRECEEDS THE NUMBER (B8) IF THE      16800020
.*                                 LATTER OPTION IS DESIRED. OMISSION   16870020
.*                                 OF THIS OPERAND FORCES OPTION 2 WITH 16940020
.*                                 BACKUP SPACING EQUAL TO THE NUMBER   17010020
.*                                 OF BYTES SPECIFIED BY THE NEXT       17080020
.*                                 OPERAND (TWICE THIS NUMBER IF SUFFIX 17150020
.*                                 IS EXPLICITLY OR IMPLICITLY B).      17220020
.*                                                                      17290020
.*                                 &BYTES - NUMBER OF TOTAL INPUT BYTES 17360020
.*                                 TO PROCESS. THIS NUMBER IS SUFFIXED  17430020
.*                                 WITH A L,R, OR B TO STIPULATE        17500020
.*                                 PRINTING OF THE LEFT HALF, RIGHT     17570020
.*                                 HALF, OR BOTH HALVES OF THE BYTE     17640020
.*                                 RESPECTIVELY. OMISSION OF THIS       17710020
.*                                 OPERAND DEFAULTS TO B WITH THE       17780020
.*                                 NUMBER OF BYTES EQUAL TO THE ITEM    17850020
.*                                 LENGTH.                              17920020
.*                                                                      17990020
.*                                 A NEW ENTRY IS GENERATED ONLY WHEN   18060020
.*                                 NECESSARY. THIS MACRO MUST BE THE    18130020
.*                                 FIRST MACRO INSTRUCTION ISSUED FOR   18200020
.*                                 THE SUBJECT LINE(S)                  18270020
         GBLC  &ITEM(2000),&DSECT                                       18340020
         GBLA  &ITEMNBR,&BITS(2000),&SHIFT(2000),&NRENTS                18410020
         LCLB  &B                                                       18480020
         LCLA  &IBITS,&NDX,&ISHIFT,&K,&T,&CODE,&BYTESP                  18550020
         LCLC  &S,&LETTER                                               18620020
.LOOP    ANOP                                                           18690020
&NDX     SETA  &NDX+1                                                   18760020
         AIF   ('&ITEM(&NDX)' EQ '&LOGITEM').FOUND                      18830020
         AIF   (&NDX LT &ITEMNBR).LOOP                                  18900020
         MNOTE '**LOG ITEM NOT FOUND**'                                 18970020
         MEXIT                                                          19040020
.FOUND   ANOP                                                           19110020
&ISHIFT  SETA  &SHIFT(&NDX)                                             19180020
&IBITS   SETA  &BITS(&NDX)                                              19250020
&CODE    SETA  1                                                        19320020
&K       SETA  K'&BYTES                                                 19390020
         AIF   (&IBITS-(&IBITS/4)*4 EQ 0).OK                            19460020
         MNOTE 'BIT LENGTH SPECIFICATION INCONSISTENT WITH CONTROL'     19530020
         MEXIT                                                          19600020
.OK      AIF   ('&BYTES' EQ '').USEDEFN                                 19670020
&LETTER  SETC  '&BYTES'(&K,1)                                           19740020
&S       SETC  '&BYTES'(1,&K-1)                                         19810020
&BYTESP  SETA  &S                                                       19880020
         AIF   ('&LETTER' EQ 'B').BOTH                                  19950020
         AIF   ('&LETTER' EQ 'L').LEFT                                  20020020
&CODE    SETA  2                                                        20090020
         AGO   .L                                                       20160020
.LEFT    ANOP                                                           20230020
&CODE    SETA  1                                                        20300020
         AGO   .L                                                       20370020
         AIF   (&ISHIFT EQ 0 OR &ISHIFT EQ 4).OK2                       20440020
.ERR     MNOTE 'DATA NOT ALIGNED ON HEX OR BYTE BOUNDARY'               20510020
         MEXIT                                                          20580020
.USEDEFN ANOP                                                           20650020
&BYTESP  SETA  &IBITS/8                                                 20720020
.BOTH    AIF   (&ISHIFT NE 0).ERR                                       20790020
&CODE    SETA  3                                                        20860020
&T       SETA  &BYTESP*2-1                                              20930020
&S       SETC  '&T'                                                     21000020
.OK2     AIF   (&ISHIFT EQ 0).L                                         21070020
&CODE    SETA  2                                                        21140020
.L       ANOP                                                           21210020
&B       SETB  1                                                        21280020
         AIF   ('&SKIP$OR' EQ '').BACKUP                                21350020
&K       SETA  K'&SKIP$OR                                               21420020
&B       SETB  ('&SKIP$OR'(1,1) EQ 'B')                                 21490020
&S       SETC  '&SKIP$OR'(&B+1,&K-&B)                                   21560020
.BACKUP  ANOP                                                           21630020
&NRENTS  SETA  &NRENTS+1                                                21700020
         DC    AL.12(&LOGITEM-&DSECT),XL.4'A'                           21770020
         DC    BL.1'&B',FL.7'&S',AL.4(&BYTESP),FL.4'&CODE'              21840020
.OUT     ANOP                                                           21910020
         MEND                                                           21980020
*                                                                       22050020
*                                                                       22120020
*********************************************************************** 22190020
*                                                                       22260020
*                                                                       22330020
         MACRO                                                          22400020
&NAME    ROUTINE  &LOGITEM,&RNAME                                       22470020
         GBLC  &ITEM(2000)                                              22540020
         GBLA  &SHIFT(2000),&ITEMNBR                                    22610020
         GBLC  &DSECT,&CSECT                                            22680020
         GBLA  &NRENTS                                                  22750020
         LCLA  &ISHIFT,&NDX                                             22820020
.LOOP    ANOP                                                           22890020
&NDX     SETA  &NDX+1                                                   22960020
         AIF   ('&ITEM(&NDX)' EQ '&LOGITEM').FOUND                      23030020
         AIF   (&NDX LT &ITEMNBR).LOOP                                  23100020
         MNOTE 'LOG ITEM NOT DEFINED'                                   23170020
         MEXIT                                                          23240020
.FOUND   ANOP                                                           23310020
&ISHIFT  SETA  &SHIFT(&NDX)                                             23380020
&NAME    DC    AL.12(&LOGITEM-&DSECT),XL.4'D'                           23450020
         DC    AL.4(&ISHIFT),AL.12(&RNAME-&CSECT)                       23520020
&NRENTS  SETA  &NRENTS+1                                                23590020
         MEND                                                           23660020
*                                                                       23730020
*                                                                       23800020
*********************************************************************** 23870020
*                                                                       23940020
*                                                                       24010020
         MACRO                                                          24080020
&NAME    LABEL &LABEL1,&LABEL2,&LABEL3,&LABEL4,&LABEL5,&LABEL6,        C24150020
               &LABEL7,&LABEL8                                          24220020
.*                            THIS MACRO ALLOWS UP TO ACHT LABELS TO    24290020
.*                                 BE SPECIFIED FOR A GIVEN LINE. THE   24360020
.*                                 LABELS SHOULD BE ENCLOSED IN QUOTA-  24430020
.*                                 TION MARKS. THE COLUMN AND LINE END  24500020
.*                                 CONTROLS WILL BE INSERTED BY THE     24570020
.*                                 MACRO. OMITTED OPERANDS MEAN NO      24640020
.*                                 LABEL REQUIRED FOR RESPECTIVE        24710020
.*                                 COLUMN. THIS MACRO WILL ALSO ALERT   24780020
.*                                 THE PROGRAMMER TO EXACTLY WHERE THE  24850020
.*                                 TABLE MUST BE BROKEN IF NECESSARY    24920020
.*                                 TO AVOID EXCEEDING THE MAXIMUM LIMIT 24990020
         GBLC &LABELS(2000)                                             25060020
         GBLC  &LBL(100)                                                25130020
         GBLA  &LBLCTR(100)                                             25200020
         GBLA  &LABELNR                                                 25270020
         GBLA  &NRENTS,&LPTR                                            25340020
         LCLC  &MARGIN,&TACK                                            25410020
         LCLC  &TEXT                                                    25480020
         LCLA  &OP,&K,&START,&NRCHAR,&REMAIN                            25550020