         TITLE 'I F C E M A D 1  EDIT TABLE FOR 3350 SNB''S 0-7 AND FMTC00090002
                1 8-23'                                                 00180002
***  DSGEN MACRO     DSGEN MACRO     DSGEN MACRO     DSGEN MACRO    *** 00270002
         SPACE                                                          00360002
         MACRO                                                          00450002
&NAME    DSGEN                                                          00540002
.*                            THIS MACRO GENERATES ONE DSECT WORD       00630002
.*                                 FORMATTED FOR THE SUBJECT LOG RECORD 00720002
.*                                 EACH OPERAND HAS TWO SUB LISTS. THE  00810002
.*                                 FIRST IS THE NAME OF THE LOG ITEM    00900002
.*                                 WHILE THE SECOND IS THE # OF BITS TO 00990002
.*                                 ALLOCATE FOR THIS ITEM. ITEMS MUST   01080002
.*                                 BE DEFINED CONTIGUOUSLY WITHOUT GAPS 01170002
.*                                 UNUSED BIT GROUPS MUST BE GIVEN      01260002
.*                                 DUMMY NAMES. THE NAMES PROVIDED FOR  01350002
.*                                 THE LOG ITEMS MAY THEN BE USED IN    01440002
.*                                 THE CONVERSION MACRO INSTRUCTIONS.   01530002
         GBLA  &BITS(3000),&ITEMNBR,&SHIFT(3000)                        01620002
         GBLC  &ITEM(3000)                                              01710002
         LCLB  &ONLY1,&CTIND                                            01800002
         LCLA  &START1,&START2,&END1,&END2                              01890002
         LCLC  &SYMBOL,&EQUSYM                                          01980002
         LCLA  &OP,&COUNT,&BYTE,&EQUCNT                                 02070002
         ACTR  100000                                                   02160002
.START   AIF   (N'&SYSLIST(&OP+1) LT 3).LOOP                            02250002
         AIF   ('&SYSLIST(&OP+1,3)' EQ 'EQU').LOOP     TEST FOR EQU     02340002
  AIF   ('&SYSLIST(&OP+1,3)' EQ '' OR '&SYSLIST(&OP+1,4)' EQ '').ERR1   02430002
         AIF   ('&SYSLIST(&OP+1,3)' GT '&SYSLIST(&OP+1,4)').ERR3        02520002
&START1  SETA  &SYSLIST(&OP+1,3)        GET START COUNT OF 1            02610002
&START2  SETA  &SYSLIST(&OP+1,4)        GET FIRST END COUNT             02700002
         AGO   .SET2A                   BRANCH AROUND                   02790002
.ERR1    MNOTE '**FIRST SYMBOL CONCATENATION INCOMPLETE**'              02880002
         MEXIT                                                          02970002
.SET2A   AIF   ('&SYSLIST(&OP+1,5)' EQ ''AND '&SYSLIST(&OP+1,6)' EQ '' X03060002
               ).SET2                   TEST FOR NO SECOND              03150002
  AIF   ('&SYSLIST(&OP+1,5)' EQ '' OR '&SYSLIST(&OP+1,6)' EQ '').ERR2   03240002
         AIF   ('&SYSLIST(&OP+1,5)' GT '&SYSLIST(&OP+1,6)').ERR3        03330002
&END1    SETA  &SYSLIST(&OP+1,5)        GET START COUNT OF 2            03420002
&END2    SETA  &SYSLIST(&OP+1,6)        GET END COUNT OF 2              03510002
         AGO   .LOOP                                                    03600002
.SET2    ANOP                                                           03690002
&ONLY1   SETB  1                        INDICATE ONLY ONE CONCATENATION 03780002
         AGO   .LOOP                                                    03870002
.ERR2    MNOTE '**SECOND SYMBOL CONCATENATION INCOMPLETE**'             03960002
         MEXIT                                                          04050002
.ERR3    MNOTE '**START GREATER THAN END CONCATENATION**'               04140002
         MEXIT                                                          04230002
.LOOP    ANOP                                                           04320002
&OP      SETA  &OP+1                                                    04410002
         AIF   (&OP GT N'&SYSLIST).DONE      TEST IF ALL DONE           04500002
&ITEMNBR SETA  &ITEMNBR+1                                               04590002
         AIF   ('&SYSLIST(&OP,2)' NE '').OK1                            04680002
         MNOTE '**NULL BIT COUNT FIELD**'                               04770002
         MEXIT                                                          04860002
.OK1     ANOP                                                           04950002
&SYMBOL  SETC  '&SYSLIST(&OP,1)'                                        05040002
         AIF   ('&SYMBOL' NE '').OK                                     05130002
*              *****     LOG ITEM SYMBOL NOT PROVIDED     *****         05220002
         AIF   ('&SYSLIST(&OP,3)' NE 'EQU').CNT                         05310002
         AGO   .START                   GET NEXT                        05400002
.OK      AIF   (N'&SYSLIST(&OP) LT 3).NO3    TEST FOR OLD FORMAT        05490002
         AIF   ('&SYSLIST(&OP,3)' EQ 'EQU').EQU   TEST FOR EQU          05580002
         AIF   (&ONLY1).OK2             TEST FOR ONLY ONE CONCAT        05670002
&SYMBOL  SETC  '&SYMBOL.&START1.&END1'       GET 1 AND 2 CONCAT         05760002
         AGO   .NO3                     BRANCH AROUND                   05850002
.OK2     ANOP                                                           05940002
&SYMBOL  SETC  '&SYMBOL.&START1'        GET 1 CONCATENATED              06030002
.NO3     ANOP                                                           06120002
&SYMBOL  EQU   *+&BYTE                                                  06210002
&ITEM(&ITEMNBR) SETC '&SYMBOL'          GET LABEL IN GLOBAL             06300002
&BITS(&ITEMNBR) SETA &SYSLIST(&OP,2)                                    06390002
&SHIFT(&ITEMNBR) SETA &COUNT-&BYTE*8                                    06480002
.CNT     ANOP                                                           06570002
&CTIND   SETB  1                        SET COUNT INDICATOR             06660002
&COUNT   SETA  &COUNT+&SYSLIST(&OP,2)                                   06750002
&BYTE    SETA  &COUNT/8                                                 06840002
         AIF   (N'&SYSLIST(&OP) LT 3).START  TEST FOR OLD FORMAT        06930002
         AIF   (&ONLY1).TSTST           TEST FOR ONLY ONE CONCAT        07020002
         AIF   (&END1 EQ &END2).TSTST   TEST FOR SECOND END             07110002
&END1    SETA  &END1+1                  INCREMENT COUNT                 07200002
&OP      SETA  &OP-1                    DECREMENT INCREMENT             07290002
         AGO   .LOOP                    GENERATE NEXT                   07380002
.TSTST   ANOP                                                           07470002
         AIF   (&START1 EQ &START2).LPDONE   TEST FOR END               07560002
         AIF   (&ONLY1).NSET1           TEST FOR ONLY ONE CONCAT        07650002
&END1    SETA  &SYSLIST(&OP,5)          RE-INIT SECOND START COUNT      07740002
.NSET1   ANOP                                                           07830002
&OP      SETA  &OP-1                    DECREMENT INDEX                 07920002
&START1  SETA  &START1+1                INCREMENT FIRST COUNT           08010002
         AGO   .LOOP                    GO DO NEXT                      08100002
.LPDONE  ANOP                                                           08190002
&ONLY1   SETB  0                        CLEAR INDICATOR                 08280002
         AGO   .START                   GO TEST FOR MORE SUB-LISTS      08370002
.DONE    AIF   (&COUNT-&COUNT/8*8 NE 0).ERR  TEST FOR MULTIPLE OF EIGHT 08460002
         AIF   (&CTIND EQ 0).END        NO DS IF NO COUNT               08550002
&COUNT   SETA  &COUNT/8                 GET NUMBER OF BYTES             08640002
&NAME    DS    &COUNT.C                                                 08730002
.END     MEXIT                                                          08820002
.ERR     MNOTE '**BIT COUNT FLDS DO NOT TOTAL MULTIPLE OF 8**'          08910002
         MEXIT                                                          09000002
.EQU     AIF   ('&SYSLIST(&OP,4)' NE '').EQU1     TEST FOR NULL LABEL   09090002
.ERR4    MNOTE '**EQU OPERAND OMITTED OR NOT FOUND**'                   09180002
         MEXIT                                                          09270002
.EQU1    AIF   (&SYSLIST(&OP,2) LT 16).EQU2  COUNT OVER FIFTEEN         09360002
*****               THE FOLLOWING STATEMENT                *****        09450002
*****     NUMBER OF BITS EXCEED 15 - DO NOT USE AS BIN     *****        09540002
.EQU2    ANOP                                                           09630002
&EQUCNT  SETA  0                        CLEAR COUNTER                   09720002
&EQUSYM  SETC  '&SYSLIST(&OP,4)'        GET EQU OPERAND                 09810002
.EQULOP  ANOP                                                           09900002
&EQUCNT  SETA  &EQUCNT+1                INCREMENT INDEX                 09990002
         AIF   ('&ITEM(&EQUCNT)' EQ '&EQUSYM').EQUOUT  LABEL FOUND?     10080002
         AIF   (&EQUCNT EQ &ITEMNBR).ERR4    ALL TESTED?                10170002
         AGO   .EQULOP                  NO-GET NEXT                     10260002
.EQUOUT  ANOP                                                           10350002
&ITEM(&ITEMNBR) SETC '&SYMBOL'          GET LABEL NAME                  10440002
&BITS(&ITEMNBR) SETA &SYSLIST(&OP,2)    GET NUMBER OF BITS              10530002
&SHIFT(&ITEMNBR) SETA &SHIFT(&EQUCNT)   GET SHIFT COUNT                 10620002
&SYMBOL  EQU   &EQUSYM                  THIS SYMBOL EQUATED             10710002
         AGO   .START                   RETURN FOR NEXT                 10800002
         MEND                                                           10890002
         EJECT                                                          10980002
***  BIN MACRO       BIN MACRO       BIN MACRO       BIN MACRO      *** 11070002
         SPACE                                                          11160002
         MACRO                                                          11250002
         BIN                                                            11340002
.*                                 &SYSLIST(&OP,1) - NAME OF LOG ITEM   11430002
.*                                      RECORD DSECT                    11520002
.*                                 $SYSLIST(&OP,2) - NBR OF SPACES      11610002
.*                                      TO SKIP ON MULTIPLE             11700002
.*                                      PRINT OR NBR OF SPACES          11790002
.*                                      TO BACK UP FROM COLUMN FOR      11880002
.*                                      START OF PRINTING. THE LETTER   11970002
.*                                      B PRECEEDS THE NUMBER (B5) IF   12060002
.*                                      THE LATTER IS DESIRED. OMISSION 12150002
.*                                      OF THIS OPERAND FORCES OPTION 2 12240002
.*                                      WITH BACKUP SPACING EQUAL TO    12330002
.*                                 THE NUMBER OF BITS IN THE ITEM       12420002
.*                                 DEFINITION (VIA MACRO 'DSGEN').      12510002
.*                            A LIMIT OF 15 BITS IS IMPOSED FOR THE     12600002
.*                                 TOTAL NUMBER OF BITS TO PRINT.       12690002
         GBLA  &INITIAL                                                 12780002
         GBLB  &DIAGTST,&DIAGSET,&DIAGLIN                               12870002
         GBLC  &ITEM(3000),&DSECT                                       12960002
         GBLA  &BITS(3000),&ITEMNBR,&SHIFT(3000),&NRENTS                13050002
         LCLB  &B,&SUB                                                  13140002
         LCLA  &IBITS,&NDX,&ISHIFT,&K                                   13230002
         LCLA  &TEMP,&T,&OP                                             13320002
         LCLC  &S                                                       13410002
         ACTR  500000                                                   13500002
         AIF   (&DIAGTST EQ 0).NOMSG                                    13590002
         AIF   (&INITIAL EQ 0).NOMSG                                    13680002
         AIF   (&DIAGLIN EQ 1).NOMSG                                    13770002
         MNOTE '**NO LINE ASSOCIATED WITH THIS DATA**'                  13860002
*****THE FOLLOWING GENERATED FOR TEST PURPOSES*****                     13950002
*        LINE                                                           14040002
         LINE                                                           14130002
.NOMSG   ANOP                                                           14220002
         AIF   (K'&SYSLIST(1) EQ K'&SYSLIST(1,1)).LOOP                  14310002
&SUB     SETB  1                                                        14400002
.LOOP    ANOP                                                           14490002
&OP      SETA  &OP+1                                                    14580002
.LOOP1   ANOP                                                           14670002
&NDX     SETA  &NDX+1                                                   14760002
         AIF   ('&ITEM(&NDX)' EQ '&SYSLIST(&OP,1)').FOUND               14850002
         AIF   (&NDX LT &ITEMNBR).LOOP1                                 14940002
         MNOTE '**LOG ITEM NOT DEFINED**'                               15030002
         MEXIT                                                          15120002
.FOUND   ANOP                                                           15210002
&ISHIFT  SETA  &SHIFT(&NDX)                                             15300002
&IBITS   SETA  &BITS(&NDX)                                              15390002
         AIF   (&SUB EQ 1).SUB00                                        15480002
         AIF   ('&SYSLIST(3)' EQ '').SETT                               15570002
&IBITS   SETA  &SYSLIST(3)                                              15660002
         AGO   .SETT                                                    15750002
.SUB00   AIF   ('&SYSLIST(&OP,3)' EQ '').SETT                           15840002
&IBITS   SETA  &SYSLIST(&OP,3)                                          15930002
.SETT    ANOP                                                           16020002
&T       SETA  &IBITS-1                                                 16110002
&B       SETB  0                                                        16200002
         AIF   (&IBITS GT 0 AND &IBITS LT 16).SUB0                      16290002
         MNOTE '**NO. OF BITS OUTSIDE RANGE OF 1-15**'                  16380002
         MEXIT                                                          16470002
.SUB0    AIF   (&SUB EQ 1).SUBA                                         16560002
         AIF   ('&SYSLIST(2)' EQ '').BACKUP                             16650002
&K       SETA  K'&SYSLIST(2)                                            16740002
&B       SETB  ('&SYSLIST(2)'(1,1) EQ 'B')                              16830002
&S       SETC  '&SYSLIST(2)'(&B+1,&K-&B)                                16920002
         AGO   .SUBB                                                    17010002
.SUBA    ANOP                                                           17100002
         AIF   ('&SYSLIST(&OP,2)' EQ '').BACKUP                         17190002
&K       SETA  K'&SYSLIST(&OP,2)                                        17280002
&B       SETB  ('&SYSLIST(&OP,2)'(1,1) EQ 'B')                          17370002
&S       SETC  '&SYSLIST(&OP,2)'(&B+1,&K-&B)                            17460002
.SUBB    ANOP                                                           17550002
&T       SETA  &S                                                       17640002
.BACKUP  ANOP                                                           17730002
&NRENTS  SETA  &NRENTS+1                                                17820002
&TEMP    SETA  &ISHIFT                                                  17910002
         AIF   (&IBITS NE 1 OR &B NE 0).BIN2                            18000002
         DC    AL.12(&SYSLIST(&OP,1)-&DSECT),XL.4'&TEMP'                18090002
         AGO   .OUT                                                     18180002
.BIN2    AIF   (&SUB EQ 1).BIN2A                                        18270002
         AIF   ('&SYSLIST(2)' NE '').BIN3                               18360002
         AGO   .BIN2B                                                   18450002
.BIN2A   AIF   ('&SYSLIST(&OP,2)' NE '').BIN3                           18540002
.BIN2B   ANOP                                                           18630002
&B       SETB  1                                                        18720002
.BIN3    ANOP                                                           18810002
         DC    AL.12(&SYSLIST(&OP,1)-&DSECT),XL.4'C'                    18900002
         DC    BL.1'&B',AL.7(&T),AL.4(&IBITS),FL.4'&ISHIFT'             18990002
.OUT     ANOP                                                           19080002
&NDX     SETA  0                                                        19170002
         AIF   (&SUB EQ 0).OUTA                                         19260002
         AIF   (&OP LT N'&SYSLIST).LOOP                                 19350002
.OUTA    ANOP                                                           19440002
         MEND                                                           19530002
         EJECT                                                          19620002
***  HEX MACRO       HEX MACRO       HEX MACRO       HEX MACRO      *** 19710002
         SPACE                                                          19800002
         MACRO                                                          19890002
         HEX                                                            19980002
.*                            THIS MACRO FACILITATES GENERATION OF THE  20070002
.*                                 TABLE ENTRIES SPECIFYING HEX TYPE    20160002
.*                                 CONVERSIONS.                         20250002
.*                            &SYSLIST(&OP,1) - NAME OF DATA ITEM TO BE 20340002
.*                                 CONVERTED                            20430002
.*                            &SYSLIST(&OP,2) - # OF SPACES TO SKIP ON  20520002
.*                                 MULTIPLE PRINT OR NBR OF SPACES TO   20610002
.*                                 BACK UP FROM COLUMN FOR START OF     20700002
.*                                 PRINTING. THE LETTER B PRECEEDS THE  20790002
.*                                 NUMBER (B8) IF THE LATTER OPTION IS  20880002
.*                                 DESIRED. OMISSION OF THIS OPERAND    20970002
.*                                 FORCES OPTION 2 WITH BACKUP SPACING  21060002
.*                                 EQUAL TO THE NUMBER OF BYTES SPECI-  21150002
.*                                 FIED BY THE NEXT OPERAND (TWICE THIS 21240002
.*                                 NUMBER IF SUFFIX IS EXPLICITLY OR    21330002
.*                                 IMPLICITLY B).                       21420002
.*                            &SYSLIST(&OP,3) - NUMBER OF BYTES TO      21510002
.*                                 PROCESS. THIS NUMBER IS SUFFIXED     21600002
.*                                 WITH AN L,R, OR B TO STIPULATE       21690002
.*                                 PRINTING OF THE LEFT HALF, RIGHT     21780002
.*                                 HALF, OR BOTH HALVES OF THE BYTE     21870002
.*                                 RESPECTIVELY. OMISSION OF THIS       21960002
.*                                 OPERAND DEFAULTS TO B WITH THE NUM-  22050002
.*                                 BER OF BYTES EQUAL TO THE ITEM LNGTH 22140002
.*                            A NEW ENTRY IS GENERATED ONLY WHEN NECES- 22230002
.*                                 SARY. THIS MACRO MUST BE THE FIRST   22320002
.*                                 MACRO INSTRUCTION ISSUED FOR THE     22410002
.*                                 SUBJECT LINE(S).                     22500002
         GBLA  &BITS(3000),&ITEMNBR,&SHIFT(3000),&NRENTS                22590002
         GBLC  &ITEM(3000),&DSECT                                       22680002
         GBLA  &INITIAL                                                 22770002
         GBLB  &DIAGTST,&DIAGSET,&DIAGLIN                               22860002
         LCLB  &B,&SUB                                                  22950002
         LCLA  &IBITS,&NDX,&ISHIFT,&K,&T,&CODE,&BYTESP,&OP              23040002
         LCLC  &S,&LETTER                                               23130002
         ACTR  500000                                                   23220002
         AIF   (&DIAGTST EQ 0).NOMSG                                    23310002
         AIF   (&INITIAL EQ 0).NOMSG                                    23400002
         AIF   (&DIAGLIN EQ 1).NOMSG                                    23490002
         MNOTE '**NO LINE ASSOCIATED WITH THIS DATA**'                  23580002
*****THE FOLLOWING GENERATED FOR TEST PURPOSES*****                     23670002
*        LINE                                                           23760002
         LINE                                                           23850002
.NOMSG   ANOP                                                           23940002
         AIF   (K'&SYSLIST(1) EQ K'&SYSLIST(1,1)).LOOP                  24030002
&SUB     SETB  1                                                        24120002
.LOOP    ANOP                                                           24210002
&OP      SETA  &OP+1                                                    24300002
.LOOP1   ANOP                                                           24390002
&NDX     SETA  &NDX+1                                                   24480002
         AIF   ('&ITEM(&NDX)' EQ '&SYSLIST(&OP,1)').FOUND               24570002
         AIF   (&NDX LT &ITEMNBR).LOOP1                                 24660002
         MNOTE '**LOG ITEM NOT DEFINED**'                               24750002
         MEXIT                                                          24840002
.FOUND   ANOP                                                           24930002
&ISHIFT  SETA  &SHIFT(&NDX)                                             25020002
&IBITS   SETA  &BITS(&NDX)                                              25110002
         AIF   (&ISHIFT EQ 0 OR &ISHIFT EQ 4).ALIGN                     25200002
.ERR     MNOTE '**DATA NOT ALLIGNED ON HEX OR BYTE BOUNDARY**'          25290002
         MEXIT                                                          25380002
.ALIGN   ANOP                                                           25470002
&CODE    SETA  1                                                        25560002
         AIF   (&SUB EQ 1).SUBA                                         25650002
&K       SETA  K'&SYSLIST(3)                                            25740002
         AGO   .SUBB                                                    25830002
.SUBA    ANOP                                                           25920002
&K       SETA  K'&SYSLIST(&OP,3)                                        26010002
.SUBB    ANOP                                                           26100002
         AIF   (&K EQ 1).ERR3                                           26190002
         AIF   (&IBITS-(&IBITS/4)*4 EQ 0).OK                            26280002
         MNOTE '**BIT LENGTH SPECIFICATION INCONSISTENT WITH CONTROL**' 26370002
         MEXIT                                                          26460002
.OK      AIF   (&SUB EQ 1).SUBC                                         26550002
         AIF   ('&SYSLIST(3)' EQ '').USEDEFN                            26640002
&LETTER  SETC  '&SYSLIST(3)'(&K,1)                                      26730002
&S       SETC  '&SYSLIST(3)'(1,&K-1)                                    26820002
         AGO   .SUBD                                                    26910002
.SUBC    ANOP                                                           27000002
         AIF   ('&SYSLIST(&OP,3)' EQ '').USEDEFN                        27090002
&LETTER  SETC  '&SYSLIST(&OP,3)'(&K,1)                                  27180002
&S       SETC  '&SYSLIST(&OP,3)'(1,&K-1)                                27270002
.SUBD    ANOP                                                           27360002
&BYTESP  SETA  &S                                                       27450002
         AIF   ('&LETTER' EQ 'B').BOTH                                  27540002
         AIF   ('&LETTER' EQ 'L').LEFT                                  27630002
         AIF   ('&LETTER' EQ 'R').RIGHT                                 27720002
.ERR3    MNOTE '**PARAMETER 3 INCOMPLETE-DSGEN DEFINITION USED**'       27810002
         AGO   .USEDEFN                                                 27900002
.RIGHT   ANOP                                                           27990002
&CODE    SETA  2                                                        28080002
         AGO   .L                                                       28170002
.LEFT    ANOP                                                           28260002
&CODE    SETA  1                                                        28350002
         AGO   .L                                                       28440002
.USEDEFN ANOP                                                           28530002
&BYTESP  SETA  &IBITS/8                                                 28620002
.BOTH    AIF   (&ISHIFT NE 0).ERR                                       28710002
&CODE    SETA  3                                                        28800002
&T       SETA  &BYTESP*2-1                                              28890002
&S       SETC  '&T'                                                     28980002
.OK2     AIF   (&ISHIFT EQ 0).L                                         29070002
&CODE    SETA  2                                                        29160002
.L       ANOP                                                           29250002
&B       SETB  1                                                        29340002
         AIF   (&SUB EQ 1).SUBE                                         29430002
         AIF   ('&SYSLIST(2)' EQ '').BACKUP                             29520002
&K       SETA  K'&SYSLIST(2)                                            29610002
&B       SETB  ('&SYSLIST(2)'(1,1) EQ 'B')                              29700002
&S       SETC  '&SYSLIST(2)'(&B+1,&K-&B)                                29790002
         AGO   .SUBF                                                    29880002
.SUBE    ANOP                                                           29970002
         AIF   ('&SYSLIST(&OP,2)' EQ '').BACKUP                         30060002
&K       SETA  K'&SYSLIST(&OP,2)                                        30150002
&B       SETB  ('&SYSLIST(&OP,2)'(1,1) EQ 'B')                          30240002
&S       SETC  '&SYSLIST(&OP,2)'(&B+1,&K-&B)                            30330002
.SUBF    ANOP                                                           30420002
.BACKUP  ANOP                                                           30510002
&NRENTS  SETA  &NRENTS+1                                                30600002
         AIF   (&BYTESP GT 0 AND &BYTESP LT 16).SUB0                    30690002
         MNOTE '**NO. OF BYTES OUTSIDE RANGE OF 1-15**'                 30780002
         MEXIT                                                          30870002
.SUB0    AIF   (&SUB EQ 1).SUBG                                         30960002
         DC    AL.12(&SYSLIST(1)-&DSECT),XL.4'A'                        31050002
         AGO   .SUBH                                                    31140002
.SUBG    ANOP                                                           31230002
         DC    AL.12(&SYSLIST(&OP,1)-&DSECT),XL.4'A'                    31320002
.SUBH    ANOP                                                           31410002
         DC    BL.1'&B',FL.7'&S',AL.4(&BYTESP),FL.4'&CODE'              31500002
.OUT     ANOP                                                           31590002
&NDX     SETA  0                                                        31680002
         AIF   (&SUB EQ 0).OUTA                                         31770002
         AIF   (&OP LT N'&SYSLIST).LOOP                                 31860002
.OUTA    ANOP                                                           31950002
         MEND                                                           32040002
         EJECT                                                          32130002
***  LINE MACRO      LINE MACRO      LINE MACRO      LINE MACRO     *** 32220002
         SPACE                                                          32310002
         MACRO                                                          32400002
&NAME    LINE  &DATA,&LABEL,&SKIP=                                      32490002
.*                            THIS MACRO ESTABLISHES THE MARGINS OR     32580002
.*                                 COLUMN SETTINGS FOR EACH LINE. IT    32670002
.*                                 GENERATES NECESSARY CARRIAGE CONTROL 32760002
.*                                 ENTRIES. LASTLY IT DETERMINES THE    32850002