*                                                                       00050020
*                                                                       00100020
*  DSGEN MACRO     DSGEN MACRO     DSGEN MACRO     DSGEN MACRO        * 00150020
         SPACE 2                                                        00200020
         MACRO                                                          00250020
&NAME    DSGEN &X1,&X2,&X3,&X4,&X5,&X6,&X7,&X8,&X9,&X10,&X11,&X12,&X13,X00300020
               &X14,&X15,&X16,&X17,&X18,&X19,&X20,&X21,&X22,&X23,&X24, X00350020
               &X25,&X26,&X27,&X28,&X29,&X30,&X31,&X32                  00400020
.*                            THIS MACRO GENERATES ONE DSECT WORD       00450020
.*                                 FORMATTED FOR THE SUBJECT LOG RECORD 00500020
.*                                 EACH OPERAND HAS TWO SUB LISTS. THE  00550020
.*                                 FIRST IS THE NAME OF THE LOG ITEM    00600020
.*                                 WHILE THE SECOND IS THE # OF BITS TO 00650020
.*                                 ALLOCATE FOR THIS ITEM. ITEMS MUST   00700020
.*                                 BE DEFINED CONTIGUOUSLY WITHOUT GAPS 00750020
.*                                 UNUSED BIT GROUPS MUST BE GIVEN      00800020
.*                                 DUMMY NAMES. THE NAMES PROVIDED FOR  00850020
.*                                 THE LOG ITEMS MAY THEN BE USED IN    00900020
.*                                 THE CONVERSION MACRO INSTRUCTIONS.   00950020
         GBLC  &ITEM(2000)                                              01000020
         GBLA  &ITEMNBR,&BITS(2000),&SHIFT(2000)                        01050020
         LCLC  &SYMBOL                                                  01100020
         LCLA  &OP,&COUNT,&BYTE                                         01150020
.LOOP    ANOP                                                           01200020
&OP      SETA  &OP+1                                                    01250020
&ITEMNBR SETA  &ITEMNBR+1                                               01300020
&SYMBOL  SETC  '&SYSLIST(&OP,1)'                                        01350020
         AIF   ('&SYSLIST(&OP,2)' NE '').OK1                            01400020
         MNOTE 'NULL BIT COUNT FIELD'                                   01450020
         MEXIT                                                          01500020
.OK1     ANOP                                                           01550020
         AIF   ('&SYMBOL' NE '').OK                                     01600020
         MNOTE 'LOG ITEM SYMBOL NOT PROVIDED'                           01650020
         AGO   .CNT                                                     01700020
.OK      ANOP                                                           01750020
         AIF   ('&SYMBOL'(1,1) EQ '''').CNT                *TEMP*       01800020
&SYMBOL  EQU   *+&BYTE                                                  01850020
&ITEM(&ITEMNBR)  SETC '&SYSLIST(&OP,1)'                                 01900020
&BITS(&ITEMNBR) SETA &SYSLIST(&OP,2)                                    01950020
&SHIFT(&ITEMNBR) SETA &COUNT-&BYTE*8                                    02000020
.CNT     ANOP                                                           02050020
&COUNT   SETA  &COUNT+&SYSLIST(&OP,2)                                   02100020
&BYTE    SETA  &COUNT/8                                                 02150020
         AIF (&OP LT N'&SYSLIST).LOOP                                   02200020
         AIF   (&COUNT NE 32).NOT32                                     02250020
&NAME    DS    4C                                                       02300020
         MEXIT                                                          02350020
.NOT32   AIF   (&COUNT NE 64).ERR                                       02400020
&NAME    DS    8C                                                       02450020
         MEXIT                                                          02500020
.ERR     MNOTE '**BIT COUNT FIELDS DO NOT TOTAL 32 OR 64**'             02550020
         MEND                                                           02600020
*                                                                       02650020
*                                                                       02700020
         MACRO                                                          02750020
&NAME    LINE  &DATA,&LABEL,&SKIP=                                      02800020
.*                            THIS MACRO ESTABLISHES THE MARGINS OR     02850020
.*                                 COLUMN SETTINGS FOR EACH LINE. IT    02900020
.*                                 GENERATES NECESSARY CARRIAGE CONTROL 02950020
.*                                 ENTRIES. LASTLY IT DETERMINES THE    03000020
.*                                 NUMBER OF ENTRIES ASSOCIATED WITH    03050020
.*                                 THE PREVIOUS LINE AND STORES THAT #  03100020
.*                                 INTO THE APPROPRIATE BYTE.           03150020
.*                                                                      03200020
.*                                 &DATA(1) - CHARACTER POSITION TO     03250020
.*                                 BEGIN DATA.                          03300020
.*                                                                      03350020
.*                                 &DATA(2) - # OF SPACES BETWEEN       03400020
.*                                 SUCCESSIVE DATA COLUMN STARTING      03450020
.*                                 CHARACTERS.                          03500020
.*                                                                      03550020
.*                                 &LABEL(1) - CHARACTER POSITION       03600020
.*                                 TO BEGIN LABELS.                     03650020
.*                                                                      03700020
.*                                 &LABEL(2) - # OF SPACES BETWEEN      03750020
.*                                 LINE'S LABEL STARTING CHARACTERS.    03800020
.*                                                                      03850020
.*                                 &SKIP= - # OF LINES TO ADVANCE       03900020
.*                                 CARRIAGE TO BEGIN NEXT PRINTED LINE. 03950020
.*                                                                      04000020
.*                                 NEW ENTRIES ARE GENERATED ONLY WHEN  04050020
.*                                 NECESSARY. OMISSION OF ITEMS MEANS   04100020
.*                                 THEY HAVE NOT CHANGED SINCE PREVIOUS 04150020
.*                                 SETTINGS. A LINE MACRO IS REQUIRED   04200020
.*                                 FOR EACH PRINTED LINE. IF NO SETTING 04250020
.*                                 CHANGES ARE REQUIRED ALL OPERANDS    04300020
.*                                 ARE OMITTED IN WHICH CASE ONLY THE   04350020
.*                                 # OF ENTRIES FOR THE PREVIOUS LINE   04400020
.*                                 IS COMPUTED. THIS MACRO MUST BE THE  04450020
.*                                 FIRST MACRO INSTRUCTION ISSUED FOR   04500020
.*                                 THE SUBJECT LINE.                    04550020
         GBLA  &DB,&DT,&LB,&LT,&NRENTS                                  04600020
         GBLA  &LASTCC,&INITIAL                                         04650020
         GBLC  &NRENTSX                                                 04700020
         GBLC  &CARRCON                                                 04750020
         GBLB  &TEST                                                    04800020
         LCLA  &S                                                       04850020
&NAME    DS    0C                                                       04900020
         AIF   (&INITIAL EQ 0).FIRSTLN                                  04950020
         LINEND                                                         05000020
         AGO   .NTFIRST                                                 05050020
.FIRSTLN ANOP                                                           05100020
&NRENTSX SETC  'N&SYSNDX'                                               05150020
&INITIAL SETA  1                                                        05200020
N&SYSNDX EQU   *                                                        05250020
.NTFIRST ANOP                                                           05300020
         DC    AL1(0)                                                   05350020
         AIF   ('&DATA(1)' EQ '').CKDTABS                               05400020
         AIF   (&DATA(1) EQ &DB).CKDTABS                                05450020
&DB      SETA  &DATA(1)                                                 05500020
         AGO   .AA                                                      05550020
.CKDTABS AIF   ('&DATA(2)' EQ '').NCDATA                                05600020
         AIF   (&DATA(2) EQ &DT).NCDATA                                 05650020
         AGO   .CC                                                      05700020
.AA      AIF   ('&DATA(2)' EQ '').BB                                    05750020
         AIF   (&DATA(2) EQ &DT).BB                                     05800020
.CC      ANOP                                                           05850020
&DT      SETA  &DATA(2)                                                 05900020
.BB      DC    XL2'FFFE'                                                05950020
         DC    FL1'&DB'                                                 06000020
         DC    FL1'&DT'                                                 06050020
&NRENTS  SETA  &NRENTS+1                                                06100020
.NCDATA  ANOP                                                           06150020
         AIF   ('&LABEL(1)' EQ '').CKLTABS                              06200020
         AIF   (&LABEL(1) EQ &LB).CKLTABS                               06250020
&LB      SETA  &LABEL(1)                                                06300020
         AGO   .AAA                                                     06350020
.CKLTABS AIF   ('&LABEL(2)' EQ '').NCLABEL                              06400020
         AIF   (&LABEL(2) EQ &LT).NCLABEL                               06450020
         AGO   .CCC                                                     06500020
.AAA     AIF   ('&LABEL(2)' EQ '').BBB                                  06550020
         AIF   (&LABEL(2) EQ &LT).BBB                                   06600020
.CCC     ANOP                                                           06650020
&LT      SETA  &LABEL(2)                                                06700020
.BBB     DC    XL2'FFFF'                                                06750020
         DC    FL1'&LB'                                                 06800020
         DC    FL1'&LT'                                                 06850020
&NRENTS  SETA  &NRENTS+1                                                06900020
.NCLABEL ANOP                                                           06950020
         AIF   ('&SKIP' NE '').CONT                                     07000020
         AIF   (&TEST EQ 0).NOCHANG                                     07050020
&S       SETA  &LASTCC                                                  07100020
         AGO   .DEFAULT                                                 07150020
.CONT    ANOP                                                           07200020
         AIF   (&TEST EQ 0).AB                                          07250020
&S       SETA  &SKIP                                                    07300020
.DEFAULT ANOP                                                           07350020
         ORG   &CARRCON+3                                               07400020
         DC    AL.3(0),AL.2(&S),AL.3(1)                                 07450020
         ORG                                                            07500020
&LASTCC  SETA  &S                                                       07550020
&TEST    SETB  0                                                        07600020
         AGO   .DD                                                      07650020
.AB      AIF   (&SKIP EQ &LASTCC).NOCHANG                               07700020
A&SYSNDX DC    XL2'FFFB'                                                07750020
         DC    AL.3(0),AL.2(&SKIP),AL.3(1)                              07800020
         DC    FL1'9'                                                   07850020
&LASTCC  SETA  &SKIP                                                    07900020
&TEST    SETB  1                                                        07950020
&CARRCON SETC  'A&SYSNDX'                                               08000020
&NRENTS  SETA  &NRENTS+1                                                08050020
.DD      ANOP                                                           08100020
.NOCHANG ANOP                                                           08150020
         MEND                                                           08200020
*                                                                       08250020
*                                                                       08300020
*********************************************************************** 08350020
*                                                                       08400020
*                                                                       08450020
         MACRO                                                          08500020
         BIN   &LOGITEM,&SKIP$OR                                        08550020
.*                                 &LOGITEM - NAME OF ITEM IN LOG DSECT 08600020
.*                                                                      08650020
.*                                 &SKIP$OR - NUMBER OF SPACES TO SKIP  08700020
.*                                 ON MULTIPLE PRINT OR NUMBER OF       08750020
.*                                 SPACES TO BACK UP FROM COLUMN FOR    08800020
.*                                 START OF PRINTING. THE LETTER B      08850020
.*                                 PRECEEDS THE NUMBER (B5) IF THE      08900020
.*                                 LATTER IS DESIRED. OMISSION OF THIS  08950020
.*                                 OPERAND FORCES OPTION 2 WITH BACKUP  09000020
.*                                 SPACING EQUAL TO THE NUMBER OF BITS  09050020
.*                                 IN THE ITEM DEFINITION (VIA MACRO    09100020
.*                                 'DSGEN'). A LIMIT OF 15 BITS IS      09150020
.*                                 IMPOSED FOR THE TOTAL NUMBER OF BITS 09200020
.*                                 TO PRINT.                            09250020
         GBLC  &ITEM(2000)                                              09300020
         GBLA  &ITEMNBR,&BITS(2000),&SHIFT(2000),&NRENTS                09350020
         GBLC  &DSECT                                                   09400020
         LCLB  &B                                                       09450020
         LCLA  &IBITS,&NDX,&ISHIFT,&K                                   09500020
         LCLA  &TEMP,&T                                                 09550020
         LCLC  &S                                                       09600020
.LOOP    ANOP                                                           09650020
&NDX     SETA  &NDX+1                                                   09700020
         AIF   ('&ITEM(&NDX)' EQ '&LOGITEM').FOUND                      09750020
         AIF   (&NDX LT &ITEMNBR).LOOP                                  09800020
         MNOTE '**LOG ITEM NOT FOUND**'                                 09850020
         ROUTINE  DUM,SKIPPER                                           09900020
         MEXIT                                                          09950020
.FOUND   ANOP                                                           10000020
&ISHIFT  SETA  &SHIFT(&NDX)                                             10050020
&IBITS   SETA  &BITS(&NDX)                                              10100020
&T       SETA  &IBITS-1                                                 10150020
&B       SETB  0                                                        10200020
         AIF   ('&SKIP$OR' EQ '').BACKUP                                10250020
&K       SETA  K'&SKIP$OR                                               10300020
&B       SETB  ('&SKIP$OR'(1,1) EQ 'B')                                 10350020
&S       SETC  '&SKIP$OR'(&B+1,&K-&B)                                   10400020
&T       SETA  &S                                                       10450020
.BACKUP  ANOP                                                           10500020
&NRENTS  SETA  &NRENTS+1                                                10550020
&TEMP    SETA  &ISHIFT                                                  10600020
A&SYSNDX DC    AL.12(&LOGITEM-&DSECT),XL.4'&TEMP'                       10650020
         AIF   (&IBITS EQ 1 AND &B EQ 0).OUT                            10700020
         ORG   A&SYSNDX                                                 10750020
&B       SETB  1                                                        10800020
         DC    AL.12(&LOGITEM-&DSECT),XL.4'C'                           10850020
         DC    BL.1'&B',AL.7(&T),AL.4(&IBITS),FL.4'&ISHIFT'             10900020
.OUT     ANOP                                                           10950020
         MEND                                                           11000020
*                                                                       11050020
*                                                                       11100020
*********************************************************************** 11150020
*                                                                       11200020
*                                                                       11250020
         MACRO                                                          11300020
         HEX   &LOGITEM,&SKIP$OR,&BYTES                                 11350020
.*                                                                      11400020
.*                                 THIS MACRO FACILITATES GENERATION    11450020
.*                                 OF THE TABLE ENTRIES SPECIFYING HEX  11500020
.*                                 TYPE CONVERSIONS.                    11550020
.*                                                                      11600020
.*                                 &LOGITEM - NAME OF DATA ITEM TO BE   11650020
.*                                 CONVERTED.                           11700020
.*                                                                      11750020
.*                                 &SKIP$OR - NUMBER OF SPACES TO SKIP  11800020
.*                                 ON MULTIPLE PRINT OF NUMBER OF       11850020
.*                                 SPACES TO BACK UP FROM COLUMN FOR    11900020
.*                                 START OF PRINTING. THE LETTER B      11950020
.*                                 PRECEEDS THE NUMBER (B8) IF THE      12000020
.*                                 LATTER OPTION IS DESIRED. OMISSION   12050020
.*                                 OF THIS OPERAND FORCES OPTION 2 WITH 12100020
.*                                 BACKUP SPACING EQUAL TO THE NUMBER   12150020
.*                                 OF BYTES SPECIFIED BY THE NEXT       12200020
.*                                 OPERAND (TWICE THIS NUMBER IF SUFFIX 12250020
.*                                 IS EXPLICITLY OR IMPLICITLY B).      12300020
.*                                                                      12350020
.*                                 &BYTES - NUMBER OF TOTAL INPUT BYTES 12400020
.*                                 TO PROCESS. THIS NUMBER IS SUFFIXED  12450020
.*                                 WITH A L,R, OR B TO STIPULATE        12500020
.*                                 PRINTING OF THE LEFT HALF, RIGHT     12550020
.*                                 HALF, OR BOTH HALVES OF THE BYTE     12600020
.*                                 RESPECTIVELY. OMISSION OF THIS       12650020
.*                                 OPERAND DEFAULTS TO B WITH THE       12700020
.*                                 NUMBER OF BYTES EQUAL TO THE ITEM    12750020
.*                                 LENGTH.                              12800020
.*                                                                      12850020
.*                                 A NEW ENTRY IS GENERATED ONLY WHEN   12900020
.*                                 NECESSARY. THIS MACRO MUST BE THE    12950020
.*                                 FIRST MACRO INSTRUCTION ISSUED FOR   13000020
.*                                 THE SUBJECT LINE(S)                  13050020
         GBLC  &ITEM(2000),&DSECT                                       13100020
         GBLA  &ITEMNBR,&BITS(2000),&SHIFT(2000),&NRENTS                13150020
         LCLB  &B                                                       13200020
         LCLA  &IBITS,&NDX,&ISHIFT,&K,&T,&CODE,&BYTESP                  13250020
         LCLC  &S,&LETTER                                               13300020
.LOOP    ANOP                                                           13350020
&NDX     SETA  &NDX+1                                                   13400020
         AIF   ('&ITEM(&NDX)' EQ '&LOGITEM').FOUND                      13450020
         AIF   (&NDX LT &ITEMNBR).LOOP                                  13500020
         MNOTE '**LOG ITEM NOT FOUND**'                                 13550020
         MEXIT                                                          13600020
.FOUND   ANOP                                                           13650020
&ISHIFT  SETA  &SHIFT(&NDX)                                             13700020
&IBITS   SETA  &BITS(&NDX)                                              13750020
&CODE    SETA  1                                                        13800020
&K       SETA  K'&BYTES                                                 13850020
         AIF   (&IBITS-(&IBITS/4)*4 EQ 0).OK                            13900020
         MNOTE 'BIT LENGTH SPECIFICATION INCONSISTENT WITH CONTROL'     13950020
         MEXIT                                                          14000020
.OK      AIF   ('&BYTES' EQ '').USEDEFN                                 14050020
&LETTER  SETC  '&BYTES'(&K,1)                                           14100020
&S       SETC  '&BYTES'(1,&K-1)                                         14150020
&BYTESP  SETA  &S                                                       14200020
         AIF   ('&LETTER' EQ 'B').BOTH                                  14250020
         AIF   ('&LETTER' EQ 'L').LEFT                                  14300020
&CODE    SETA  2                                                        14350020
         AGO   .L                                                       14400020
.LEFT    ANOP                                                           14450020
&CODE    SETA  1                                                        14500020
         AGO   .L                                                       14550020
         AIF   (&ISHIFT EQ 0 OR &ISHIFT EQ 4).OK2                       14600020
.ERR     MNOTE 'DATA NOT ALIGNED ON HEX OR BYTE BOUNDARY'               14650020
         MEXIT                                                          14700020
.USEDEFN ANOP                                                           14750020
&BYTESP  SETA  &IBITS/8                                                 14800020
.BOTH    AIF   (&ISHIFT NE 0).ERR                                       14850020
&CODE    SETA  3                                                        14900020
&T       SETA  &BYTESP*2-1                                              14950020
&S       SETC  '&T'                                                     15000020
.OK2     AIF   (&ISHIFT EQ 0).L                                         15050020
&CODE    SETA  2                                                        15100020
.L       ANOP                                                           15150020
&B       SETB  1                                                        15200020
         AIF   ('&SKIP$OR' EQ '').BACKUP                                15250020
&K       SETA  K'&SKIP$OR                                               15300020
&B       SETB  ('&SKIP$OR'(1,1) EQ 'B')                                 15350020
&S       SETC  '&SKIP$OR'(&B+1,&K-&B)                                   15400020
.BACKUP  ANOP                                                           15450020
&NRENTS  SETA  &NRENTS+1                                                15500020
         DC    AL.12(&LOGITEM-&DSECT),XL.4'A'                           15550020
         DC    BL.1'&B',FL.7'&S',AL.4(&BYTESP),FL.4'&CODE'              15600020
.OUT     ANOP                                                           15650020
         MEND                                                           15700020
*                                                                       15750020
*                                                                       15800020
*********************************************************************** 15850020
*                                                                       15900020
*                                                                       15950020
         MACRO                                                          16000020
&NAME    ROUTINE  &LOGITEM,&RNAME                                       16050020
         GBLC  &ITEM(2000)                                              16100020
         GBLA  &SHIFT(2000),&ITEMNBR                                    16150020
         GBLC  &DSECT,&CSECT                                            16200020
         GBLA  &NRENTS                                                  16250020
         LCLA  &ISHIFT,&NDX                                             16300020
.LOOP    ANOP                                                           16350020
&NDX     SETA  &NDX+1                                                   16400020
         AIF   ('&ITEM(&NDX)' EQ '&LOGITEM').FOUND                      16450020
         AIF   (&NDX LT &ITEMNBR).LOOP                                  16500020
         MNOTE 'LOG ITEM NOT DEFINED'                                   16550020
         MEXIT                                                          16600020
.FOUND   ANOP                                                           16650020
&ISHIFT  SETA  &SHIFT(&NDX)                                             16700020
&NAME    DC    AL.12(&LOGITEM-&DSECT),XL.4'D'                           16750020
         DC    AL.4(&ISHIFT),AL.12(&RNAME-&CSECT)                       16800020
&NRENTS  SETA  &NRENTS+1                                                16850020
         MEND                                                           16900020
*                                                                       16950020
*                                                                       17000020
*********************************************************************** 17050020
*                                                                       17100020
*                                                                       17150020
         MACRO                                                          17200020
&NAME    LABEL &LABEL1,&LABEL2,&LABEL3,&LABEL4,&LABEL5,&LABEL6,        C17250020
               &LABEL7,&LABEL8                                          17300020
.*                            THIS MACRO ALLOWS UP TO ACHT LABELS TO    17350020
.*                                 BE SPECIFIED FOR A GIVEN LINE. THE   17400020
.*                                 LABELS SHOULD BE ENCLOSED IN QUOTA-  17450020
.*                                 TION MARKS. THE COLUMN AND LINE END  17500020
.*                                 CONTROLS WILL BE INSERTED BY THE     17550020
.*                                 MACRO. OMITTED OPERANDS MEAN NO      17600020
.*                                 LABEL REQUIRED FOR RESPECTIVE        17650020
.*                                 COLUMN. THIS MACRO WILL ALSO ALERT   17700020
.*                                 THE PROGRAMMER TO EXACTLY WHERE THE  17750020
.*                                 TABLE MUST BE BROKEN IF NECESSARY    17800020
.*                                 TO AVOID EXCEEDING THE MAXIMUM LIMIT 17850020
         GBLC &LABELS(2000)                                             17900020
         GBLC  &LBL(100)                                                17950020
         GBLA  &LBLCTR(100)                                             18000020
         GBLA  &LABELNR                                                 18050020
         GBLA  &NRENTS,&LPTR                                            18100020
         LCLC  &MARGIN,&TACK                                            18150020
         LCLC  &TEXT                                                    18200020
         LCLA  &OP,&K,&START,&NRCHAR,&REMAIN                            18250020