       TITLE   'IFCEE165 MODEL 165 CPU EDIT TABLE 3'                    00050002
*  DSGEN MACRO     DSGEN MACRO     DSGEN MACRO     DSGEN MACRO        * 00100002
         SPACE 2                                                        00150002
         MACRO                                                          00200002
&NAME    DSGEN                                                          00250002
.*                            THIS MACRO GENERATES ONE DSECT WORD       00300002
.*                                 FORMATTED FOR THE SUBJECT LOG RECORD 00350002
.*                                 EACH OPERAND HAS TWO SUB LISTS. THE  00400002
.*                                 FIRST IS THE NAME OF THE LOG ITEM    00450002
.*                                 WHILE THE SECOND IS THE # OF BITS TO 00500002
.*                                 ALLOCATE FOR THIS ITEM. ITEMS MUST   00550002
.*                                 BE DEFINED CONTIGUOUSLY WITHOUT GAPS 00600002
.*                                 UNUSED BIT GROUPS MUST BE GIVEN      00650002
.*                                 DUMMY NAMES. THE NAMES PROVIDED FOR  00700002
.*                                 THE LOG ITEMS MAY THEN BE USED IN    00750002
.*                                 THE CONVERSION MACRO INSTRUCTIONS.   00800002
         GBLC &ITEM(2000)                                               00850002
         GBLA &ITEMNBR,&BITS(2000),&SHIFT(2000)                         00900002
         LCLB  &ONLY1,&CTIND                                            00950002
         LCLA  &START1,&START2,&END1,&END2                              01000002
         LCLC  &SYMBOL,&EQUSYM                                          01050002
         LCLA  &OP,&COUNT,&BYTE,&EQUCNT                                 01100002
         ACTR  100000                                                   01150002
.START   AIF   (N'&SYSLIST(&OP+1) LT 3).LOOP                            01200002
         AIF   ('&SYSLIST(&OP+1,3)' EQ 'EQU').LOOP     TEST FOR EQU     01250002
  AIF   ('&SYSLIST(&OP+1,3)' EQ '' OR '&SYSLIST(&OP+1,4)' EQ '').ERR1   01300002
         AIF   ('&SYSLIST(&OP+1,3)' GT '&SYSLIST(&OP+1,4)').ERR3        01350002
&START1  SETA  &SYSLIST(&OP+1,3)        GET START COUNT OF 1            01400002
&START2  SETA  &SYSLIST(&OP+1,4)        GET FIRST END COUNT             01450002
         AGO   .SET2A                   BRANCH AROUND                   01500002
.ERR1    MNOTE '**FIRST SYMBOL CONCATENATION INCOMPLETE**'              01550002
         MEXIT                                                          01600002
.SET2A   AIF   ('&SYSLIST(&OP+1,5)' EQ ''AND '&SYSLIST(&OP+1,6)' EQ '' X01650002
               ).SET2                   TEST FOR NO SECOND              01700002
  AIF   ('&SYSLIST(&OP+1,5)' EQ '' OR '&SYSLIST(&OP+1,6)' EQ '').ERR2   01750002
         AIF   ('&SYSLIST(&OP+1,5)' GT '&SYSLIST(&OP+1,6)').ERR3        01800002
&END1    SETA  &SYSLIST(&OP+1,5)        GET START COUNT OF 2            01850002
&END2    SETA  &SYSLIST(&OP+1,6)        GET END COUNT OF 2              01900002
         AGO   .LOOP                                                    01950002
.SET2    ANOP                                                           02000002
&ONLY1   SETB  1                        INDICATE ONLY ONE CONCATENATION 02050002
         AGO   .LOOP                                                    02100002
.ERR2    MNOTE '**SECOND SYMBOL CONCATENATION INCOMPLETE**'             02150002
         MEXIT                                                          02200002
.ERR3    MNOTE '**START GREATER THAN END CONCATENATION**'               02250002
         MEXIT                                                          02300002
.LOOP    ANOP                                                           02350002
&OP      SETA  &OP+1                                                    02400002
         AIF   (&OP GT N'&SYSLIST).DONE      TEST IF ALL DONE           02450002
&ITEMNBR SETA  &ITEMNBR+1                                               02500002
         AIF   ('&SYSLIST(&OP,2)' NE '').OK1                            02550002
         MNOTE '**NULL BIT COUNT FIELD**'                               02600002
         MEXIT                                                          02650002
.OK1     ANOP                                                           02700002
&SYMBOL  SETC  '&SYSLIST(&OP,1)'                                        02750002
         AIF   ('&SYMBOL' NE '').OK                                     02800002
*              *****     LOG ITEM SYMBOL NOT PROVIDED     *****         02850002
         AIF   ('&SYSLIST(&OP,3)' NE 'EQU').CNT                         02900002
         AGO   .START                   GET NEXT                        02950002
.OK      AIF   (N'&SYSLIST(&OP) LT 3).NO3    TEST FOR OLD FORMAT        03000002
         AIF   ('&SYSLIST(&OP,3)' EQ 'EQU').EQU   TEST FOR EQU          03050002
         AIF   (&ONLY1).OK2             TEST FOR ONLY ONE CONCAT        03100002
&SYMBOL  SETC  '&SYMBOL.&START1.&END1'       GET 1 AND 2 CONCAT         03150002
         AGO   .NO3                     BRANCH AROUND                   03200002
.OK2     ANOP                                                           03250002
&SYMBOL  SETC  '&SYMBOL.&START1'        GET 1 CONCATENATED              03300002
.NO3     ANOP                                                           03350002
&SYMBOL  EQU   *+&BYTE                                                  03400002
&ITEM(&ITEMNBR) SETC '&SYMBOL'          GET LABEL IN GLOBAL             03450002
&BITS(&ITEMNBR) SETA &SYSLIST(&OP,2)                                    03500002
&SHIFT(&ITEMNBR) SETA &COUNT-&BYTE*8                                    03550002
.CNT     ANOP                                                           03600002
&CTIND   SETB  1                        SET COUNT INDICATOR             03650002
&COUNT   SETA  &COUNT+&SYSLIST(&OP,2)                                   03700002
&BYTE    SETA  &COUNT/8                                                 03750002
         AIF   (N'&SYSLIST(&OP) LT 3).START  TEST FOR OLD FORMAT        03800002
         AIF   (&ONLY1).TSTST           TEST FOR ONLY ONE CONCAT        03850002
         AIF   (&END1 EQ &END2).TSTST   TEST FOR SECOND END             03900002
&END1    SETA  &END1+1                  INCREMENT COUNT                 03950002
&OP      SETA  &OP-1                    DECREMENT INCREMENT             04000002
         AGO   .LOOP                    GENERATE NEXT                   04050002
.TSTST   ANOP                                                           04100002
         AIF   (&START1 EQ &START2).LPDONE   TEST FOR END               04150002
         AIF   (&ONLY1).NSET1           TEST FOR ONLY ONE CONCAT        04200002
&END1    SETA  &SYSLIST(&OP,5)          RE-INIT SECOND START COUNT      04250002
.NSET1   ANOP                                                           04300002
&OP      SETA  &OP-1                    DECREMENT INDEX                 04350002
&START1  SETA  &START1+1                INCREMENT FIRST COUNT           04400002
         AGO   .LOOP                    GO DO NEXT                      04450002
.LPDONE  ANOP                                                           04500002
&ONLY1   SETB  0                        CLEAR INDICATOR                 04550002
         AGO   .START                   GO TEST FOR MORE SUB-LISTS      04600002
.DONE    AIF   (&COUNT-&COUNT/8*8 NE 0).ERR  TEST FOR MULTIPLE OF EIGHT 04650002
         AIF   (&CTIND EQ 0).END        NO DS IF NO COUNT               04700002
&COUNT   SETA  &COUNT/8                 GET NUMBER OF BYTES             04750002
&NAME    DS    &COUNT.C                                                 04800002
.END     MEXIT                                                          04850002
.ERR     MNOTE '**BIT COUNT FLDS DO NOT TOTAL MULTIPLE OF 8**'          04900002
         MEXIT                                                          04950002
.EQU     AIF   ('&SYSLIST(&OP,4)' NE '').EQU1     TEST FOR NULL LABEL   05000002
.ERR4    MNOTE '**EQU OPERAND OMITTED OR NOT FOUND**'                   05050002
         MEXIT                                                          05100002
.EQU1    AIF   (&SYSLIST(&OP,2) LT 16).EQU2  COUNT OVER FIFTEEN         05150002
*****               THE FOLLOWING STATEMENT                *****        05200002
*****     NUMBER OF BITS EXCEED 15 - DO NOT USE AS BIN     *****        05250002
.EQU2    ANOP                                                           05300002
&EQUCNT  SETA  0                        CLEAR COUNTER                   05350002
&EQUSYM  SETC  '&SYSLIST(&OP,4)'        GET EQU OPERAND                 05400002
.EQULOP  ANOP                                                           05450002
&EQUCNT  SETA  &EQUCNT+1                INCREMENT INDEX                 05500002
         AIF   ('&ITEM(&EQUCNT)' EQ '&EQUSYM').EQUOUT  LABEL FOUND?     05550002
         AIF   (&EQUCNT EQ &ITEMNBR).ERR4    ALL TESTED?                05600002
         AGO   .EQULOP                  NO-GET NEXT                     05650002
.EQUOUT  ANOP                                                           05700002
&ITEM(&ITEMNBR) SETC '&SYMBOL'          GET LABEL NAME                  05750002
&BITS(&ITEMNBR) SETA &SYSLIST(&OP,2)    GET NUMBER OF BITS              05800002
&SHIFT(&ITEMNBR) SETA &SHIFT(&EQUCNT)   GET SHIFT COUNT                 05850002
&SYMBOL  EQU   &EQUSYM                  THIS SYMBOL EQUATED             05900002
         AGO   .START                   RETURN FOR NEXT                 05950002
         MEND                                                           06000002
         MACRO                                                          06050002
         LINEND                                                         06100002
.*                            THIS MACRO IS USED ONLY BY THE LINE       06150002
.*                                 MACRO TO SET THE NUMBER OF ENTRIES   06200002
.*                                 ASSOCIATED WITH EACH LINE.           06250002
         GBLA  &NRENTS                                                  06300002
         GBLC &NRENTSX                                                  06350002
         AIF   (&NRENTS EQ 0).NORENTS   TEST FOR NO COUNT               06400002
         ORG   &NRENTSX                                                 06450002
         DC    FL1'&NRENTS'                                             06500002
         ORG                                                            06550002
&NRENTS  SETA  0                                                        06600002
.NORENTS ANOP                                                           06650002
B&SYSNDX EQU   *                                                        06700002
&NRENTSX SETC  'B&SYSNDX'                                               06750002
         MEND                                                           06800002
*                                                                       06850002
         MACRO                                                          06900002
         BIN                                                            06950002
.*                                 &SYSLIST(&OP,1) - NAME OF LOG ITEM   07000002
.*                                      RECORD DSECT                    07050002
.*                                 $SYSLIST(&OP,2) - NBR OF SPACES      07100002
.*                                      TO SKIP ON MULTIPLE             07150002
.*                                      PRINT OR NBR OF SPACES          07200002
.*                                      TO BACK UP FROM COLUMN FOR      07250002
.*                                      START OF PRINTING. THE LETTER   07300002
.*                                      B PRECEEDS THE NUMBER (B5) IF   07350002
.*                                      THE LATTER IS DESIRED. OMISSION 07400002
.*                                      OF THIS OPERAND FORCES OPTION 2 07450002
.*                                      WITH BACKUP SPACING EQUAL TO    07500002
.*                                 THE NUMBER OF BITS IN THE ITEM       07550002
.*                                 DEFINITION (VIA MACRO 'DSGEN').      07600002
.*                            A LIMIT OF 15 BITS IS IMPOSED FOR THE     07650002
.*                                 TOTAL NUMBER OF BITS TO PRINT.       07700002
         GBLA  &INITIAL                                                 07750002
         GBLB  &DIAGTST,&DIAGSET,&DIAGLIN                               07800002
         GBLC &ITEM(2000)                                               07850002
         GBLA &ITEMNBR,&BITS(2000),&SHIFT(2000),&NRENTS                 07900002
         GBLC  &DSECT                                                   07950002
         LCLB  &B,&SUB                                                  08000002
         LCLA  &IBITS,&NDX,&ISHIFT,&K                                   08050002
         LCLA  &TEMP,&T,&OP                                             08100002
         LCLC  &S                                                       08150002
         AIF   (&DIAGTST EQ 0).NOMSG                                    08200002
         AIF   (&INITIAL EQ 0).NOMSG                                    08250002
         AIF   (&DIAGLIN EQ 1).NOMSG                                    08300002
         MNOTE '**NO LINE ASSOCIATED WITH THIS DATA**'                  08350002
*****THE FOLLOWING GENERATED FOR TEST PURPOSES*****                     08400002
*        LINE                                                           08450002
         LINE                                                           08500002
.NOMSG   ANOP                                                           08550002
         AIF   (K'&SYSLIST(1) EQ K'&SYSLIST(1,1)).LOOP                  08600002
&SUB     SETB  1                                                        08650002
.LOOP    ANOP                                                           08700002
&OP      SETA  &OP+1                                                    08750002
.LOOP1   ANOP                                                           08800002
&NDX     SETA  &NDX+1                                                   08850002
         AIF   ('&ITEM(&NDX)' EQ '&SYSLIST(&OP,1)').FOUND               08900002
         AIF   (&NDX LT &ITEMNBR).LOOP1                                 08950002
         MNOTE '**LOG ITEM NOT DEFINED**'                               09000002
         MEXIT                                                          09050002
.FOUND   ANOP                                                           09100002
&ISHIFT  SETA  &SHIFT(&NDX)                                             09150002
&IBITS   SETA  &BITS(&NDX)                                              09200002
&T       SETA  &IBITS-1                                                 09250002
&B       SETB  0                                                        09300002
         AIF   (&IBITS GT 0 AND &IBITS LT 16).SUB0                      09350002
         MNOTE '**NO. OF BITS OUTSIDE RANGE OF 1-15**'                  09400002
         MEXIT                                                          09450002
.SUB0    AIF   (&SUB EQ 1).SUBA                                         09500002
         AIF   ('&SYSLIST(2)' EQ '').BACKUP                             09550002
&K       SETA  K'&SYSLIST(2)                                            09600002
&B       SETB  ('&SYSLIST(2)'(1,1) EQ 'B')                              09650002
&S       SETC  '&SYSLIST(2)'(&B+1,&K-&B)                                09700002
         AGO   .SUBB                                                    09750002
.SUBA    ANOP                                                           09800002
         AIF   ('&SYSLIST(&OP,2)' EQ '').BACKUP                         09850002
&K       SETA  K'&SYSLIST(&OP,2)                                        09900002
&B       SETB  ('&SYSLIST(&OP,2)'(1,1) EQ 'B')                          09950002
&S       SETC  '&SYSLIST(&OP,2)'(&B+1,&K-&B)                            10000002
.SUBB    ANOP                                                           10050002
&T       SETA  &S                                                       10100002
.BACKUP  ANOP                                                           10150002
&NRENTS  SETA  &NRENTS+1                                                10200002
&TEMP    SETA  &ISHIFT                                                  10250002
         AIF   (&IBITS NE 1 OR &B NE 0).BIN2                            10300002
         DC    AL.12(&SYSLIST(&OP,1)-&DSECT),XL.4'&TEMP'                10350002
         AGO   .OUT                                                     10400002
.BIN2    AIF   ('&SYSLIST(&OP,2)' NE '').BIN3                           10450002
&B       SETB  1                                                        10500002
.BIN3    ANOP                                                           10550002
         DC    AL.12(&SYSLIST(&OP,1)-&DSECT),XL.4'C'                    10600002
         DC    BL.1'&B',AL.7(&T),AL.4(&IBITS),FL.4'&ISHIFT'             10650002
.OUT     ANOP                                                           10700002
&NDX     SETA  0                                                        10750002
         AIF   (&SUB EQ 0).OUTA                                         10800002
         AIF   (&OP LT N'&SYSLIST).LOOP                                 10850002
.OUTA    ANOP                                                           10900002
         MEND                                                           10950002
         MACRO                                                          11000002
         HEX                                                            11050002
.*                            THIS MACRO FACILITATES GENERATION OF THE  11100002
.*                                 TABLE ENTRIES SPECIFYING HEX TYPE    11150002
.*                                 CONVERSIONS.                         11200002
.*                            &SYSLIST(&OP,1) - NAME OF DATA ITEM TO BE 11250002
.*                                 CONVERTED                            11300002
.*                            &SYSLIST(&OP,2) - # OF SPACES TO SKIP ON  11350002
.*                                 MULTIPLE PRINT OR NBR OF SPACES TO   11400002
.*                                 BACK UP FROM COLUMN FOR START OF     11450002
.*                                 PRINTING. THE LETTER B PRECEEDS THE  11500002
.*                                 NUMBER (B8) IF THE LATTER OPTION IS  11550002
.*                                 DESIRED. OMISSION OF THIS OPERAND    11600002
.*                                 FORCES OPTION 2 WITH BACKUP SPACING  11650002
.*                                 EQUAL TO THE NUMBER OF BYTES SPECI-  11700002
.*                                 FIED BY THE NEXT OPERAND (TWICE THIS 11750002
.*                                 NUMBER IF SUFFIX IS EXPLICITLY OR    11800002
.*                                 IMPLICITLY B).                       11850002
.*                            &SYSLIST(&OP,3) - NUMBER OF BYTES TO      11900002
.*                                 PROCESS. THIS NUMBER IS SUFFIXED     11950002
.*                                 WITH AN L,R, OR B TO STIPULATE       12000002
.*                                 PRINTING OF THE LEFT HALF, RIGHT     12050002
.*                                 HALF, OR BOTH HALVES OF THE BYTE     12100002
.*                                 RESPECTIVELY. OMISSION OF THIS       12150002
.*                                 OPERAND DEFAULTS TO B WITH THE NUM-  12200002
.*                                 BER OF BYTES EQUAL TO THE ITEM LNGTH 12250002
.*                            A NEW ENTRY IS GENERATED ONLY WHEN NECES- 12300002
.*                                 SARY. THIS MACRO MUST BE THE FIRST   12350002
.*                                 MACRO INSTRUCTION ISSUED FOR THE     12400002
.*                                 SUBJECT LINE(S).                     12450002
         GBLC &ITEM(2000),&DSECT                                        12500002
         GBLA &ITEMNBR,&BITS(2000),&SHIFT(2000),&NRENTS                 12550002
         GBLA  &INITIAL                                                 12600002
         GBLB  &DIAGTST,&DIAGSET,&DIAGLIN                               12650002
         LCLB  &B,&SUB                                                  12700002
         LCLA  &IBITS,&NDX,&ISHIFT,&K,&T,&CODE,&BYTESP,&OP              12750002
         LCLC  &S,&LETTER                                               12800002
         AIF   (&DIAGTST EQ 0).NOMSG                                    12850002
         AIF   (&INITIAL EQ 0).NOMSG                                    12900002
         AIF   (&DIAGLIN EQ 1).NOMSG                                    12950002
         MNOTE '**NO LINE ASSOCIATED WITH THIS DATA**'                  13000002
*****THE FOLLOWING GENERATED FOR TEST PURPOSES*****                     13050002
*        LINE                                                           13100002
         LINE                                                           13150002
.NOMSG   ANOP                                                           13200002
         AIF   (K'&SYSLIST(1) EQ K'&SYSLIST(1,1)).LOOP                  13250002
&SUB     SETB  1                                                        13300002
.LOOP    ANOP                                                           13350002
&OP      SETA  &OP+1                                                    13400002
.LOOP1   ANOP                                                           13450002
&NDX     SETA  &NDX+1                                                   13500002
         AIF   ('&ITEM(&NDX)' EQ '&SYSLIST(&OP,1)').FOUND               13550002
         AIF   (&NDX LT &ITEMNBR).LOOP1                                 13600002
         MNOTE '**LOG ITEM NOT DEFINED**'                               13650002
         MEXIT                                                          13700002
.FOUND   ANOP                                                           13750002
&ISHIFT  SETA  &SHIFT(&NDX)                                             13800002
&IBITS   SETA  &BITS(&NDX)                                              13850002
         AIF   (&ISHIFT EQ 0 OR &ISHIFT EQ 4).ALIGN                     13900002
.ERR     MNOTE '**DATA NOT ALLIGNED ON HEX OR BYTE BOUNDARY**'          13950002
         MEXIT                                                          14000002
.ALIGN   ANOP                                                           14050002
&CODE    SETA  1                                                        14100002
         AIF   (&SUB EQ 1).SUBA                                         14150002
&K       SETA  K'&SYSLIST(3)                                            14200002
         AGO   .SUBB                                                    14250002
.SUBA    ANOP                                                           14300002
&K       SETA  K'&SYSLIST(&OP,3)                                        14350002
.SUBB    ANOP                                                           14400002
         AIF   (&IBITS-(&IBITS/4)*4 EQ 0).OK                            14450002
         MNOTE '**BIT LENGTH SPECIFICATION INCONSISTENT WITH CONTROL**' 14500002
         MEXIT                                                          14550002
.OK      AIF   (&SUB EQ 1).SUBC                                         14600002
         AIF   ('&SYSLIST(3)' EQ '').USEDEFN                            14650002
&LETTER  SETC  '&SYSLIST(3)'(&K,1)                                      14700002
&S       SETC  '&SYSLIST(3)'(1,&K-1)                                    14750002
         AGO   .SUBD                                                    14800002
.SUBC    ANOP                                                           14850002
         AIF   ('&SYSLIST(&OP,3)' EQ '').USEDEFN                        14900002
&LETTER  SETC  '&SYSLIST(&OP,3)'(&K,1)                                  14950002
&S       SETC  '&SYSLIST(&OP,3)'(1,&K-1)                                15000002
.SUBD    ANOP                                                           15050002
&BYTESP  SETA  &S                                                       15100002
         AIF   ('&LETTER' EQ 'B').BOTH                                  15150002
         AIF   ('&LETTER' EQ 'L').LEFT                                  15200002
&CODE    SETA  2                                                        15250002
         AGO   .L                                                       15300002
.LEFT    ANOP                                                           15350002
&CODE    SETA  1                                                        15400002
         AGO   .L                                                       15450002
.USEDEFN ANOP                                                           15500002
&BYTESP  SETA  &IBITS/8                                                 15550002
.BOTH    AIF   (&ISHIFT NE 0).ERR                                       15600002
&CODE    SETA  3                                                        15650002
&T       SETA  &BYTESP*2-1                                              15700002
&S       SETC  '&T'                                                     15750002
.OK2     AIF   (&ISHIFT EQ 0).L                                         15800002
&CODE    SETA  2                                                        15850002
.L       ANOP                                                           15900002
&B       SETB  1                                                        15950002
         AIF   (&SUB EQ 1).SUBE                                         16000002
         AIF   ('&SYSLIST(2)' EQ '').BACKUP                             16050002
&K       SETA  K'&SYSLIST(2)                                            16100002
&B       SETB  ('&SYSLIST(2)'(1,1) EQ 'B')                              16150002
&S       SETC  '&SYSLIST(2)'(&B+1,&K-&B)                                16200002
         AGO   .SUBF                                                    16250002
.SUBE    ANOP                                                           16300002
         AIF   ('&SYSLIST(&OP,2)' EQ '').BACKUP                         16350002
&K       SETA  K'&SYSLIST(&OP,2)                                        16400002
&B       SETB  ('&SYSLIST(&OP,2)'(1,1) EQ 'B')                          16450002
&S       SETC  '&SYSLIST(&OP,2)'(&B+1,&K-&B)                            16500002
.SUBF    ANOP                                                           16550002
.BACKUP  ANOP                                                           16600002
&NRENTS  SETA  &NRENTS+1                                                16650002
         AIF   (&BYTESP GT 0 AND &BYTESP LT 16).SUB0                    16700002
         MNOTE '**NO. OF BYTES OUTSIDE RANGE OF 1-15**'                 16750002
         MEXIT                                                          16800002
.SUB0    AIF   (&SUB EQ 1).SUBG                                         16850002
         DC    AL.12(&SYSLIST(1)-&DSECT),XL.4'A'                        16900002
         AGO   .SUBH                                                    16950002
.SUBG    ANOP                                                           17000002
         DC    AL.12(&SYSLIST(&OP,1)-&DSECT),XL.4'A'                    17050002
.SUBH    ANOP                                                           17100002
         DC    BL.1'&B',FL.7'&S',AL.4(&BYTESP),FL.4'&CODE'              17150002
.OUT     ANOP                                                           17200002
&NDX     SETA  0                                                        17250002
         AIF   (&SUB EQ 0).OUTA                                         17300002
         AIF   (&OP LT N'&SYSLIST).LOOP                                 17350002
.OUTA    ANOP                                                           17400002
         MEND                                                           17450002
         MACRO                                                          17500002
         LSTART                                                         17550002
.*                            THIS MACRO IS ISSUED WHEN THE LABEL AREA  17600002
.*                                 OF THE TABLE IS TO BEGIN.            17650002
         GBLA  &LABELNR                                                 17700002
         GBLC  &LBL(100)                                                17750002
         GBLC &LABELS(2000)                                             17800002
         GBLA  &LBLCTR(100)                                             17850002
         GBLB  &DIAGTST,&DIAGSET,&DIAGLIN                               17900002
         LCLA  &NDX,&CTR                                                17950002
         AIF   (&DIAGTST EQ 0).NODIAG                                   18000002
         AIF   (&DIAGSET EQ 0).NODIAG                                   18050002
         MNOTE '**NO LABEL ASSOCIATED WITH LAST SET**'                  18100002
***** THE FOLLOWING GENERATED FOR TEST PURPOSES *****                   18150002
*        LABEL '%%%%%%%%%%%%%%%%%%%%%%%%%%%%%%%%%%%%%%%%%%%%%%%%'       18200002
               LABEL '%%%%%%%%%%%%%%%%%%%%%%%%%%%%%%%%%%%%%%%%%%%%%%%%' 18250002