         TITLE 'IFCS3350 - 3350 SUMMARY TABLE MODULE'          @XM09337 00050042
*  LINE MACRO     LINE MACRO     LINE MACRO     LINE MACRO            * 00100042
         MACRO                                                          00150042
&NAME    LINE  &DATA,&LABEL,&SKIP=                                      00200042
.*                            THIS MACRO ESTABLISHES THE MARGINS OR     00250042
.*                                 COLUMN SETTINGS FOR EACH LINE. IT    00300042
.*                                 GENERATES NECESSARY CARRIAGE CONTROL 00350042
.*                                 ENTRIES. LASTLY IT DETERMINES THE    00400042
.*                                 NUMBER OF ENTRIES ASSOCIATED WITH    00450042
.*                                 THE PREVIOUS LINE AND STORES THAT #  00500042
.*                                 INTO THE APPROPRIATE BYTE.           00550042
.*                            &DATA(1) - CHARACTER POSITION TO BEGIN    00600042
.*                                 DATA.                                00650042
.*                            &DATA(2) - # OF SPACES BETWEEN SUCCESSIVE 00700042
.*                                 DATA COLUMN STARTING CHARACTERS.     00750042
.*                            &LABEL(1) - CHAR. POS. TO BEGIN LABELS.   00800042
.*                            &LABEL(2) - # SPACES BETWEEN LINE'S LABEL 00850042
.*                                 STARTING CHARACTERS.                 00900042
.*                            &SKIP= - # OF LINES TO ADVANCE CARRIAGE   00950042
.*                                 TO BEGIN NEXT PRINTED LINE.          01000042
.*                            NEW ENTRIES ARE GENERATED ONLY WHEN       01050042
.*                                 NECESSARY. OMISSION OF ITEMS MEANS   01100042
.*                                 THEY HAVE NOT CHANGED SINCE PREVIOUS 01150042
.*                                 SETTINGS. A LINE MACRO IS REQUIRED   01200042
.*                                 FOR EACH PRINTED LINE. IF NO SETTING 01250042
.*                                 CHANGES ARE REQUIRED ALL OPERANDS    01300042
.*                                 ARE OMITTED IN WHICH CASE ONLY THE   01350042
.*                                 # OF ENTRIES FOR THE PREVIOUS LINE   01400042
.*                                 IS COMPUTED. THIS MACRO MUST BE THE  01450042
.*                                 FIRST MACRO INSTRUCTION ISSUED FOR   01500042
.*                                 THE SUBJECT LINE                     01550042
         GBLA  &DB,&DT,&LB,&LT,&NRENTS                                  01600042
         GBLA  &LASTCC,&INITIAL                                         01650042
         GBLC  &NRENTSX                                                 01700042
         GBLC  &CARRCON                                                 01750042
         GBLB  &TEST                                                    01800042
         LCLA  &S                                                       01850042
&NAME    DS    0C                                                       01900042
         AIF   (&INITIAL EQ 0).FIRSTLN                                  01950042
         LINEND                                                         02000042
         AGO   .NTFIRST                                                 02050042
.FIRSTLN ANOP                                                           02100042
&NRENTSX SETC  'N&SYSNDX'                                               02150042
&INITIAL SETA  1                                                        02200042
N&SYSNDX EQU   *                                                        02250042
.NTFIRST ANOP                                                           02300042
         DC    AL1(0)                                                   02350042
         AIF   ('&DATA(1)' EQ '').CKDTABS                               02400042
         AIF   (&DATA(1) EQ &DB).CKDTABS                                02450042
&DB      SETA  &DATA(1)                                                 02500042
         AGO   .AA                                                      02550042
.CKDTABS AIF   ('&DATA(2)' EQ '').NCDATA                                02600042
         AIF   (&DATA(2) EQ &DT).NCDATA                                 02650042
         AGO   .CC                                                      02700042
.AA      AIF   ('&DATA(2)' EQ '').BB                                    02750042
         AIF   (&DATA(2) EQ &DT).BB                                     02800042
.CC      ANOP                                                           02850042
&DT      SETA  &DATA(2)                                                 02900042
.BB      DC    XL2'FFFE'                                                02950042
         DC    FL1'&DB'                                                 03000042
         DC    FL1'&DT'                                                 03050042
&NRENTS  SETA  &NRENTS+1                                                03100042
.NCDATA  ANOP                                                           03150042
         AIF   ('&LABEL(1)' EQ '').CKLTABS                              03200042
         AIF   (&LABEL(1) EQ &LB).CKLTABS                               03250042
&LB      SETA  &LABEL(1)                                                03300042
         AGO   .AAA                                                     03350042
.CKLTABS AIF   ('&LABEL(2)' EQ '').NCLABEL                              03400042
         AIF   (&LABEL(2) EQ &LT).NCLABEL                               03450042
         AGO   .CCC                                                     03500042
.AAA     AIF   ('&LABEL(2)' EQ '').BBB                                  03550042
         AIF   (&LABEL(2) EQ &LT).BBB                                   03600042
.CCC     ANOP                                                           03650042
&LT      SETA  &LABEL(2)                                                03700042
.BBB     DC    XL2'FFFF'                                                03750042
         DC    FL1'&LB'                                                 03800042
         DC    FL1'&LT'                                                 03850042
&NRENTS  SETA  &NRENTS+1                                                03900042
.NCLABEL ANOP                                                           03950042
         AIF   ('&SKIP' NE '').CONT                                     04000042
         AIF   (&TEST EQ 0).NOCHANG                                     04050042
&S       SETA  &LASTCC                                                  04100042
         AGO   .DEFAULT                                                 04150042
.CONT    ANOP                                                           04200042
         AIF   (&TEST EQ 0).AB                                          04250042
&S       SETA  &SKIP                                                    04300042
.DEFAULT ANOP                                                           04350042
         ORG   &CARRCON+3                                               04400042
         DC    AL.3(0),AL.2(&S),AL.3(1)                                 04450042
         ORG                                                            04500042
&LASTCC  SETA  &S                                                       04550042
&TEST    SETB  0                                                        04600042
         AGO   .DD                                                      04650042
.AB      AIF   (&SKIP EQ &LASTCC).NOCHANG                               04700042
A&SYSNDX DC    XL2'FFFB'                                                04750042
         DC    AL.3(0),AL.2(&SKIP),AL.3(1)                              04800042
         DC    FL1'9'                                                   04850042
&LASTCC  SETA  &SKIP                                                    04900042
&TEST    SETB  1                                                        04950042
&CARRCON SETC  'A&SYSNDX'                                               05000042
&NRENTS  SETA  &NRENTS+1                                                05050042
.DD      ANOP                                                           05100042
.NOCHANG ANOP                                                           05150042
         MEND                                                           05200042
         EJECT                                                          05250042
         SPACE 2                                                        05300042
*  ROUTINE MACRO     ROUTINE MACRO     ROUTINE MACRO     ROUTINE MACRO* 05350042
         MACRO                                                          05400042
&NAME    ROUTINE &LOGITEM,&RNAME                                        05450042
         GBLC  &DSECT,&CSECT                                            05500042
         GBLC  &ITEM(1000)                                              05550042
         GBLA  &SHIFT(1000),&ITEMNBR                                    05600042
         GBLA  &NRENTS                                                  05650042
         LCLA  &ISHIFT,&NDX                                             05700042
.LOOP    ANOP                                                           05750042
&NDX     SETA  &NDX+1                                                   05800042
         AIF   ('&ITEM(&NDX)' EQ '&LOGITEM').FOUND                      05850042
         AIF   (&NDX LT &ITEMNBR).LOOP                                  05900042
         MNOTE *,'LOG ITEM NOT DEFINED'                                 05950042
         MEXIT                                                          06000042
.FOUND   ANOP                                                           06050042
&ISHIFT  SETA  &SHIFT(&NDX)                                             06100042
&NAME    DC    AL.12(&LOGITEM-&DSECT),XL.4'D'                           06150042
         DC    AL.4(&ISHIFT),AL.12(&RNAME-&CSECT)                       06200042
&NRENTS  SETA  &NRENTS+1                                                06250042
         MEND                                                           06300042
         EJECT                                                          06350042
*        DSGEN  MACRO        D S G E N  M A C R O          DSGEN MACRO  06400042
         MACRO                                                          06450042
&NAME    DSGEN                                                          06500042
.*                            THIS MACRO GENERATES ONE DSECT WORD       06550042
.*                                 FORMATTED FOR THE SUBJECT LOG RECORD 06600042
.*                                 EACH OPERAND HAS TWO SUB LISTS. THE  06650042
.*                                 FIRST IS THE NAME OF THE LOG ITEM    06700042
.*                                 WHILE THE SECOND IS THE # OF BITS TO 06750042
.*                                 ALLOCATE FOR THIS ITEM. ITEMS MUST   06800042
.*                                 BE DEFINED CONTIGUOUSLY WITHOUT GAPS 06850042
.*                                 UNUSED BIT GROUPS MUST BE GIVEN      06900042
.*                                 DUMMY NAMES. THE NAMES PROVIDED FOR  06950042
.*                                 THE LOG ITEMS MAY THEN BE USED IN    07000042
.*                                 THE CONVERSION MACRO INSTRUCTIONS.   07050042
         GBLA  &BITS(1000),&ITEMNBR,&SHIFT(1000)                        07100042
         GBLC  &ITEM(1000)                                              07150042
         LCLB  &ONLY1,&CTIND                                            07200042
         LCLA  &START1,&START2,&END1,&END2                              07250042
         LCLC  &SYMBOL,&EQUSYM                                          07300042
         LCLA  &OP,&COUNT,&BYTE,&EQUCNT                                 07350042
         ACTR  500000                                                   07400042
.START   AIF   (N'&SYSLIST(&OP+1) LT 3).LOOP                            07450042
         AIF   ('&SYSLIST(&OP+1,3)' EQ 'EQU').LOOP     TEST FOR EQU     07500042
  AIF   ('&SYSLIST(&OP+1,3)' EQ '' OR '&SYSLIST(&OP+1,4)' EQ '').ERR1   07550042
         AIF   ('&SYSLIST(&OP+1,3)' GT '&SYSLIST(&OP+1,4)').ERR3        07600042
&START1  SETA  &SYSLIST(&OP+1,3)        GET START COUNT OF 1            07650042
&START2  SETA  &SYSLIST(&OP+1,4)        GET FIRST END COUNT             07700042
         AGO   .SET2A                   BRANCH AROUND                   07750042
.ERR1    MNOTE '**FIRST SYMBOL CONCATENATION INCOMPLETE**'              07800042
         MEXIT                                                          07850042
.SET2A   AIF   ('&SYSLIST(&OP+1,5)' EQ ''AND '&SYSLIST(&OP+1,6)' EQ '' X07900042
               ).SET2                   TEST FOR NO SECOND              07950042
  AIF   ('&SYSLIST(&OP+1,5)' EQ '' OR '&SYSLIST(&OP+1,6)' EQ '').ERR2   08000042
         AIF   ('&SYSLIST(&OP+1,5)' GT '&SYSLIST(&OP+1,6)').ERR3        08050042
&END1    SETA  &SYSLIST(&OP+1,5)        GET START COUNT OF 2            08100042
&END2    SETA  &SYSLIST(&OP+1,6)        GET END COUNT OF 2              08150042
         AGO   .LOOP                                                    08200042
.SET2    ANOP                                                           08250042
&ONLY1   SETB  1                        INDICATE ONLY ONE CONCATENATION 08300042
         AGO   .LOOP                                                    08350042
.ERR2    MNOTE '**SECOND SYMBOL CONCATENATION INCOMPLETE**'             08400042
         MEXIT                                                          08450042
.ERR3    MNOTE '**START GREATER THAN END CONCATENATION**'               08500042
         MEXIT                                                          08550042
.LOOP    ANOP                                                           08600042
&OP      SETA  &OP+1                                                    08650042
         AIF   (&OP GT N'&SYSLIST).DONE      TEST IF ALL DONE           08700042
&ITEMNBR SETA  &ITEMNBR+1                                               08750042
         AIF   ('&SYSLIST(&OP,2)' NE '').OK1                            08800042
         MNOTE '**NULL BIT COUNT FIELD**'                               08850042
         MEXIT                                                          08900042
.OK1     ANOP                                                           08950042
&SYMBOL  SETC  '&SYSLIST(&OP,1)'                                        09000042
         AIF   ('&SYMBOL' NE '').OK                                     09050042
*              *****     LOG ITEM SYMBOL NOT PROVIDED     *****         09100042
         AIF   ('&SYSLIST(&OP,3)' NE 'EQU').CNT                         09150042
         AGO   .START                   GET NEXT                        09200042
.OK      AIF   (N'&SYSLIST(&OP) LT 3).NO3    TEST FOR OLD FORMAT        09250042
         AIF   ('&SYSLIST(&OP,3)' EQ 'EQU').EQU   TEST FOR EQU          09300042
         AIF   (&ONLY1).OK2             TEST FOR ONLY ONE CONCAT        09350042
&SYMBOL  SETC  '&SYMBOL.&START1.&END1'       GET 1 AND 2 CONCAT         09400042
         AGO   .NO3                     BRANCH AROUND                   09450042
.OK2     ANOP                                                           09500042
&SYMBOL  SETC  '&SYMBOL.&START1'        GET 1 CONCATENATED              09550042
.NO3     ANOP                                                           09600042
&SYMBOL  EQU   *+&BYTE                                                  09650042
&ITEM(&ITEMNBR) SETC '&SYMBOL'          GET LABEL IN GLOBAL             09700042
&BITS(&ITEMNBR) SETA &SYSLIST(&OP,2)                                    09750042
&SHIFT(&ITEMNBR) SETA &COUNT-&BYTE*8                                    09800042
.CNT     ANOP                                                           09850042
&CTIND   SETB  1                        SET COUNT INDICATOR             09900042
&COUNT   SETA  &COUNT+&SYSLIST(&OP,2)                                   09950042
&BYTE    SETA  &COUNT/8                                                 10000042
         AIF   (N'&SYSLIST(&OP) LT 3).START  TEST FOR OLD FORMAT        10050042
         AIF   (&ONLY1).TSTST           TEST FOR ONLY ONE CONCAT        10100042
         AIF   (&END1 EQ &END2).TSTST   TEST FOR SECOND END             10150042
&END1    SETA  &END1+1                  INCREMENT COUNT                 10200042
&OP      SETA  &OP-1                    DECREMENT INCREMENT             10250042
         AGO   .LOOP                    GENERATE NEXT                   10300042
.TSTST   ANOP                                                           10350042
         AIF   (&START1 EQ &START2).LPDONE   TEST FOR END               10400042
         AIF   (&ONLY1).NSET1           TEST FOR ONLY ONE CONCAT        10450042
&END1    SETA  &SYSLIST(&OP,5)          RE-INIT SECOND START COUNT      10500042
.NSET1   ANOP                                                           10550042
&OP      SETA  &OP-1                    DECREMENT INDEX                 10600042
&START1  SETA  &START1+1                INCREMENT FIRST COUNT           10650042
         AGO   .LOOP                    GO DO NEXT                      10700042
.LPDONE  ANOP                                                           10750042
&ONLY1   SETB  0                        CLEAR INDICATOR                 10800042
         AGO   .START                   GO TEST FOR MORE SUB-LISTS      10850042
.DONE    AIF   (&COUNT-&COUNT/8*8 NE 0).ERR  TEST FOR MULTIPLE OF EIGHT 10900042
         AIF   (&CTIND EQ 0).END        NO DS IF NO COUNT               10950042
&COUNT   SETA  &COUNT/8                 GET NUMBER OF BYTES             11000042
&NAME    DS    &COUNT.C                                                 11050042
.END     MEXIT                                                          11100042
.ERR     MNOTE '**BIT COUNT FLDS DO NOT TOTAL MULTIPLE OF 8**'          11150042
         MEXIT                                                          11200042
.EQU     AIF   ('&SYSLIST(&OP,4)' NE '').EQU1     TEST FOR NULL LABEL   11250042
.ERR4    MNOTE '**EQU OPERAND OMITTED OR NOT FOUND**'                   11300042
         MEXIT                                                          11350042
.EQU1    AIF   (&SYSLIST(&OP,2) LT 16).EQU2  COUNT OVER FIFTEEN         11400042
*****               THE FOLLOWING STATEMENT                *****        11450042
*****     NUMBER OF BITS EXCEED 15 - DO NOT USE AS BIN     *****        11500042
.EQU2    ANOP                                                           11550042
&EQUCNT  SETA  0                        CLEAR COUNTER                   11600042
&EQUSYM  SETC  '&SYSLIST(&OP,4)'        GET EQU OPERAND                 11650042
.EQULOP  ANOP                                                           11700042
&EQUCNT  SETA  &EQUCNT+1                INCREMENT INDEX                 11750042
         AIF   ('&ITEM(&EQUCNT)' EQ '&EQUSYM').EQUOUT  LABEL FOUND?     11800042
         AIF   (&EQUCNT EQ &ITEMNBR).ERR4    ALL TESTED?                11850042
         AGO   .EQULOP                  NO-GET NEXT                     11900042
.EQUOUT  ANOP                                                           11950042
&ITEM(&ITEMNBR) SETC '&SYMBOL'          GET LABEL NAME                  12000042
&BITS(&ITEMNBR) SETA &SYSLIST(&OP,2)    GET NUMBER OF BITS              12050042
&SHIFT(&ITEMNBR) SETA &SHIFT(&EQUCNT)   GET SHIFT COUNT                 12100042
&SYMBOL  EQU   &EQUSYM                  THIS SYMBOL EQUATED             12150042
         AGO   .START                   RETURN FOR NEXT                 12200042
         MEND                                                           12250042
         EJECT                                                          12300042
         MACRO                                                          12350042
         LINEND                                                         12400042
.*                            THIS MACRO IS USED ONLY BY THE LINE       12450042
.*                                 MACRO TO SET THE NUMBER OF ENTRIES   12500042
.*                                 ASSOCIATED WITH EACH LINE.           12550042
         GBLA  &NRENTS                                                  12600042
         GBLC &NRENTSX                                                  12650042
         ORG   &NRENTSX                                                 12700042
         DC    FL1'&NRENTS'                                             12750042
         ORG                                                            12800042
&NRENTS  SETA  0                                                        12850042
B&SYSNDX EQU   *                                                        12900042
&NRENTSX SETC  'B&SYSNDX'                                               12950042
         MEND                                                           13000042
         SPACE 2                                                        13050042
         EJECT                                                          13100042
*  LABEL MACRO     LABEL MACRO     LABEL MACRO     LABEL MACRO        * 13150042
         SPACE 2                                                        13200042
         MACRO                                                          13250042
&NAME    LABEL &LABEL1,&LABEL2,&LABEL3,&LABEL4,&LABEL5,&LABEL6,        C13300042
               &LABEL7,&LABEL8                                          13350042
.*                            THIS MACRO ALLOWS UP TO ACHT LABELS TO    13400042
.*                                 BE SPECIFIED FOR A GIVEN LINE. THE   13450042
.*                                 LABELS SHOULD BE ENCLOSED IN QUOTA-  13500042
.*                                 TION MARKS. THE COLUMN AND LINE END  13550042
.*                                 CONTROLS WILL BE INSERTED BY THE     13600042
.*                                 MACRO. OMITTED OPERANDS MEAN NO      13650042
.*                                 LABEL REQUIRED FOR RESPECTIVE        13700042
.*                                 COLUMN. THIS MACRO WILL ALSO ALERT   13750042
.*                                 THE PROGRAMMER TO EXACTLY WHERE THE  13800042
.*                                 TABLE MUST BE BROKEN IF NECESSARY    13850042
.*                                 TO AVOID EXCEEDING THE MAXIMUM LIMIT 13900042
         GBLC &LABELS(2000)                                             13950042
         GBLC  &LBL(100)                                                14000042
         GBLA  &LBLCTR(100)                                             14050042
         GBLA  &LABELNR                                                 14100042
         GBLA  &NRENTS,&LPTR                                            14150042
         LCLC  &MARGIN,&TACK                                            14200042
         LCLC  &TEXT                                                    14250042
         LCLA  &OP,&K,&START,&NRCHAR,&REMAIN                            14300042
&MARGIN  SETC  '*'                                                      14350042
         AIF   ('&NAME' EQ '').LOOPOUT                                  14400042
&LPTR    SETA  &LPTR+1                                                  14450042
&LBL(&LPTR) SETC '&NAME'                                                14500042
&LBLCTR(&LPTR) SETA &LABELNR+1                                          14550042
.LOOPOUT ANOP                                                           14600042
&OP      SETA  &OP+1                                                    14650042
&K       SETA  K'&SYSLIST(&OP)                                          14700042
         AIF (&K GE 2).NORM                                             14750042
&K       SETA  2                                                        14800042
.NORM    ANOP                                                           14850042
&START   SETA  2                                                        14900042
         AIF (&OP LT N'&SYSLIST).NOTLAST                                14950042
&MARGIN  SETC  '$'                                                      15000042
.NOTLAST ANOP                                                           15050042
&NRCHAR  SETA  8                                                        15100042
&TACK    SETC  ''                                                       15150042
.LOOPIN  ANOP                                                           15200042
&REMAIN  SETA  &K-&START                                                15250042
         AIF (&REMAIN GE 8).MORE                                        15300042
&TACK    SETC  '&MARGIN'                                                15350042
&NRCHAR  SETA  &REMAIN                                                  15400042
.MORE    ANOP                                                           15450042
&TEXT    SETC  ''                                                       15500042
         AIF (&REMAIN EQ 0).ENDTEXT                                     15550042
&TEXT    SETC  '&SYSLIST(&OP)'(&START,&NRCHAR)                          15600042
.ENDTEXT ANOP                                                           15650042
&LABELNR SETA  &LABELNR+1                                               15700042
&LABELS(&LABELNR) SETC '&TEXT'.'&TACK'                                  15750042
&START   SETA  &START+8                                                 15800042
         AIF ('&TACK' EQ '').LOOPIN                                     15850042
         AIF ('&TACK' EQ '*').LOOPOUT                                   15900042
         MEND                                                           15950042
         SPACE 2                                                        16000042
         MACRO                                                          16050042
         LSTART                                                         16100042
.*                            THIS MACRO IS ISSUED WHEN THE LABEL AREA  16150042
.*                                 OF THE TABLE IS TO BEGIN.            16200042
         GBLC &LABELS(2000)                                             16250042
         GBLA  &LABELNR                                                 16300042
         GBLC  &LBL(100)                                                16350042
         GBLA  &LBLCTR(100)                                             16400042
         LCLA  &NDX,&CTR                                                16450042
         LINEND                                                         16500042
&CTR     SETA  1                                                        16550042
.LOOP    ANOP                                                           16600042
&NDX     SETA  &NDX+1                                                   16650042
         AIF   (&LBLCTR(&CTR) NE &NDX).NOLBL                            16700042
&LBL(&CTR) DC  C'&LABELS(&NDX)'                                         16750042
&CTR     SETA  &CTR+1                                                   16800042
         AGO   .LOOPCTL                                                 16850042
.NOLBL   ANOP                                                           16900042
         DC    C'&LABELS(&NDX)'                                         16950042
.LOOPCTL AIF   (&NDX LT &LABELNR).LOOP                                  17000042
         MEND                                                           17050042
         SPACE 2                                                        17100042
*  BIN MACRO     BIN MACRO     BIN MACRO     BIN MACRO     BIN MACRO  * 17150042
         SPACE 2                                                        17200042
         MACRO                                                          17250042
         BIN   &LOGITEM,&SKIP$OR                                        17300042
.*                                 &LOGITEM - NAME OF ITEM IN LOG       17350042
.*                                      RECORD DSECT                    17400042
.*                                 &SKIP$OR - NBR OF SPACES TO SKIP ON  17450042
.*                                 MULTIPLE PRINT OR NBR OF SPACES      17500042
.*                                      TO BACK UP FROM COLUMN FOR      17550042
.*                                      START OF PRINTING. THE LETTER   17600042
.*                                      B PRECEEDS THE NUMBER (B5) IF   17650042
.*                                      THE LATTER IS DESIRED. OMISSION 17700042
.*                                      OF THIS OPERAND FORCES OPTION 2 17750042
.*                                      WITH BACKUP SPACING EQUAL TO    17800042
.*                                 THE NUMBER OF BITS IN THE ITEM       17850042
.*                                 DEFINITION (VIA MACRO 'DSGEN').      17900042
.*                            A LIMIT OF 15 BITS IS IMPOSED FOR THE     17950042
.*                                 TOTAL NUMBER OF BITS TO PRINT.       18000042
         GBLC &ITEM(1000)                                               18050042
         GBLA &ITEMNBR,&BITS(1000),&SHIFT(1000),&NRENTS                 18100042
         GBLC  &DSECT                                                   18150042
         LCLB  &B                                                       18200042
         LCLA  &IBITS,&NDX,&ISHIFT,&K                                   18250042