       TITLE   'IFCS0165 MODEL 165/168 CPU SUMMARY TABLE'               00060002
*  DSGEN MACRO     DSGEN MACRO     DSGEN MACRO     DSGEN MACRO        * 00120002
         SPACE 2                                                        00180002
         MACRO                                                          00240002
&NAME    DSGEN                                                          00300002
.*                            THIS MACRO GENERATES ONE DSECT WORD       00360002
.*                                 FORMATTED FOR THE SUBJECT LOG RECORD 00420002
.*                                 EACH OPERAND HAS TWO SUB LISTS. THE  00480002
.*                                 FIRST IS THE NAME OF THE LOG ITEM    00540002
.*                                 WHILE THE SECOND IS THE # OF BITS TO 00600002
.*                                 ALLOCATE FOR THIS ITEM. ITEMS MUST   00660002
.*                                 BE DEFINED CONTIGUOUSLY WITHOUT GAPS 00720002
.*                                 UNUSED BIT GROUPS MUST BE GIVEN      00780002
.*                                 DUMMY NAMES. THE NAMES PROVIDED FOR  00840002
.*                                 THE LOG ITEMS MAY THEN BE USED IN    00900002
.*                                 THE CONVERSION MACRO INSTRUCTIONS.   00960002
         GBLC &ITEM(2000)                                               01020002
         GBLA &ITEMNBR,&BITS(2000),&SHIFT(2000)                         01080002
         LCLB  &ONLY1,&CTIND                                            01140002
         LCLA  &START1,&START2,&END1,&END2                              01200002
         LCLC  &SYMBOL,&EQUSYM                                          01260002
         LCLA  &OP,&COUNT,&BYTE,&EQUCNT                                 01320002
         ACTR  100000                                                   01380002
.START   AIF   (N'&SYSLIST(&OP+1) LT 3).LOOP                            01440002
         AIF   ('&SYSLIST(&OP+1,3)' EQ 'EQU').LOOP     TEST FOR EQU     01500002
  AIF   ('&SYSLIST(&OP+1,3)' EQ '' OR '&SYSLIST(&OP+1,4)' EQ '').ERR1   01560002
         AIF   ('&SYSLIST(&OP+1,3)' GT '&SYSLIST(&OP+1,4)').ERR3        01620002
&START1  SETA  &SYSLIST(&OP+1,3)        GET START COUNT OF 1            01680002
&START2  SETA  &SYSLIST(&OP+1,4)        GET FIRST END COUNT             01740002
         AGO   .SET2A                   BRANCH AROUND                   01800002
.ERR1    MNOTE '**FIRST SYMBOL CONCATENATION INCOMPLETE**'              01860002
         MEXIT                                                          01920002
.SET2A   AIF   ('&SYSLIST(&OP+1,5)' EQ ''AND '&SYSLIST(&OP+1,6)' EQ '' X01980002
               ).SET2                   TEST FOR NO SECOND              02040002
  AIF   ('&SYSLIST(&OP+1,5)' EQ '' OR '&SYSLIST(&OP+1,6)' EQ '').ERR2   02100002
         AIF   ('&SYSLIST(&OP+1,5)' GT '&SYSLIST(&OP+1,6)').ERR3        02160002
&END1    SETA  &SYSLIST(&OP+1,5)        GET START COUNT OF 2            02220002
&END2    SETA  &SYSLIST(&OP+1,6)        GET END COUNT OF 2              02280002
         AGO   .LOOP                                                    02340002
.SET2    ANOP                                                           02400002
&ONLY1   SETB  1                        INDICATE ONLY ONE CONCATENATION 02460002
         AGO   .LOOP                                                    02520002
.ERR2    MNOTE '**SECOND SYMBOL CONCATENATION INCOMPLETE**'             02580002
         MEXIT                                                          02640002
.ERR3    MNOTE '**START GREATER THAN END CONCATENATION**'               02700002
         MEXIT                                                          02760002
.LOOP    ANOP                                                           02820002
&OP      SETA  &OP+1                                                    02880002
         AIF   (&OP GT N'&SYSLIST).DONE      TEST IF ALL DONE           02940002
&ITEMNBR SETA  &ITEMNBR+1                                               03000002
         AIF   ('&SYSLIST(&OP,2)' NE '').OK1                            03060002
         MNOTE '**NULL BIT COUNT FIELD**'                               03120002
         MEXIT                                                          03180002
.OK1     ANOP                                                           03240002
&SYMBOL  SETC  '&SYSLIST(&OP,1)'                                        03300002
         AIF   ('&SYMBOL' NE '').OK                                     03360002
*              *****     LOG ITEM SYMBOL NOT PROVIDED     *****         03420002
         AIF   ('&SYSLIST(&OP,3)' NE 'EQU').CNT                         03480002
         AGO   .START                   GET NEXT                        03540002
.OK      AIF   (N'&SYSLIST(&OP) LT 3).NO3    TEST FOR OLD FORMAT        03600002
         AIF   ('&SYSLIST(&OP,3)' EQ 'EQU').EQU   TEST FOR EQU          03660002
         AIF   (&ONLY1).OK2             TEST FOR ONLY ONE CONCAT        03720002
&SYMBOL  SETC  '&SYMBOL.&START1.&END1'       GET 1 AND 2 CONCAT         03780002
         AGO   .NO3                     BRANCH AROUND                   03840002
.OK2     ANOP                                                           03900002
&SYMBOL  SETC  '&SYMBOL.&START1'        GET 1 CONCATENATED              03960002
.NO3     ANOP                                                           04020002
&SYMBOL  EQU   *+&BYTE                                                  04080002
&ITEM(&ITEMNBR) SETC '&SYMBOL'          GET LABEL IN GLOBAL             04140002
&BITS(&ITEMNBR) SETA &SYSLIST(&OP,2)                                    04200002
&SHIFT(&ITEMNBR) SETA &COUNT-&BYTE*8                                    04260002
.CNT     ANOP                                                           04320002
&CTIND   SETB  1                        SET COUNT INDICATOR             04380002
&COUNT   SETA  &COUNT+&SYSLIST(&OP,2)                                   04440002
&BYTE    SETA  &COUNT/8                                                 04500002
         AIF   (N'&SYSLIST(&OP) LT 3).START  TEST FOR OLD FORMAT        04560002
         AIF   (&ONLY1).TSTST           TEST FOR ONLY ONE CONCAT        04620002
         AIF   (&END1 EQ &END2).TSTST   TEST FOR SECOND END             04680002
&END1    SETA  &END1+1                  INCREMENT COUNT                 04740002
&OP      SETA  &OP-1                    DECREMENT INCREMENT             04800002
         AGO   .LOOP                    GENERATE NEXT                   04860002
.TSTST   ANOP                                                           04920002
         AIF   (&START1 EQ &START2).LPDONE   TEST FOR END               04980002
         AIF   (&ONLY1).NSET1           TEST FOR ONLY ONE CONCAT        05040002
&END1    SETA  &SYSLIST(&OP,5)          RE-INIT SECOND START COUNT      05100002
.NSET1   ANOP                                                           05160002
&OP      SETA  &OP-1                    DECREMENT INDEX                 05220002
&START1  SETA  &START1+1                INCREMENT FIRST COUNT           05280002
         AGO   .LOOP                    GO DO NEXT                      05340002
.LPDONE  ANOP                                                           05400002
&ONLY1   SETB  0                        CLEAR INDICATOR                 05460002
         AGO   .START                   GO TEST FOR MORE SUB-LISTS      05520002
.DONE    AIF   (&COUNT-&COUNT/8*8 NE 0).ERR  TEST FOR MULTIPLE OF EIGHT 05580002
         AIF   (&CTIND EQ 0).END        NO DS IF NO COUNT               05640002
&COUNT   SETA  &COUNT/8                 GET NUMBER OF BYTES             05700002
&NAME    DS    &COUNT.C                                                 05760002
.END     MEXIT                                                          05820002
.ERR     MNOTE '**BIT COUNT FLDS DO NOT TOTAL MULTIPLE OF 8**'          05880002
         MEXIT                                                          05940002
.EQU     AIF   ('&SYSLIST(&OP,4)' NE '').EQU1     TEST FOR NULL LABEL   06000002
.ERR4    MNOTE '**EQU OPERAND OMITTED OR NOT FOUND**'                   06060002
         MEXIT                                                          06120002
.EQU1    AIF   (&SYSLIST(&OP,2) LT 16).EQU2  COUNT OVER FIFTEEN         06180002
*****               THE FOLLOWING STATEMENT                *****        06240002
*****     NUMBER OF BITS EXCEED 15 - DO NOT USE AS BIN     *****        06300002
.EQU2    ANOP                                                           06360002
&EQUCNT  SETA  0                        CLEAR COUNTER                   06420002
&EQUSYM  SETC  '&SYSLIST(&OP,4)'        GET EQU OPERAND                 06480002
.EQULOP  ANOP                                                           06540002
&EQUCNT  SETA  &EQUCNT+1                INCREMENT INDEX                 06600002
         AIF   ('&ITEM(&EQUCNT)' EQ '&EQUSYM').EQUOUT  LABEL FOUND?     06660002
         AIF   (&EQUCNT EQ &ITEMNBR).ERR4    ALL TESTED?                06720002
         AGO   .EQULOP                  NO-GET NEXT                     06780002
.EQUOUT  ANOP                                                           06840002
&ITEM(&ITEMNBR) SETC '&SYMBOL'          GET LABEL NAME                  06900002
&BITS(&ITEMNBR) SETA &SYSLIST(&OP,2)    GET NUMBER OF BITS              06960002
&SHIFT(&ITEMNBR) SETA &SHIFT(&EQUCNT)   GET SHIFT COUNT                 07020002
&SYMBOL  EQU   &EQUSYM                  THIS SYMBOL EQUATED             07080002
         AGO   .START                   RETURN FOR NEXT                 07140002
         MEND                                                           07200002
         MACRO                                                          07260002
         LINEND                                                         07320002
.*                            THIS MACRO IS USED ONLY BY THE LINE       07380002
.*                                 MACRO TO SET THE NUMBER OF ENTRIES   07440002
.*                                 ASSOCIATED WITH EACH LINE.           07500002
         GBLA  &NRENTS                                                  07560002
         GBLC &NRENTSX                                                  07620002
         AIF   (&NRENTS EQ 0).NORENTS   TEST FOR NO COUNT               07680002
         ORG   &NRENTSX                                                 07740002
         DC    FL1'&NRENTS'                                             07800002
         ORG                                                            07860002
&NRENTS  SETA  0                                                        07920002
.NORENTS ANOP                                                           07980002
B&SYSNDX EQU   *                                                        08040002
&NRENTSX SETC  'B&SYSNDX'                                               08100002
         MEND                                                           08160002
*                                                                       08220002
         MACRO                                                          08280002
         BIN                                                            08340002
.*                                 &SYSLIST(&OP,1) - NAME OF LOG ITEM   08400002
.*                                      RECORD DSECT                    08460002
.*                                 $SYSLIST(&OP,2) - NBR OF SPACES      08520002
.*                                      TO SKIP ON MULTIPLE             08580002
.*                                      PRINT OR NBR OF SPACES          08640002
.*                                      TO BACK UP FROM COLUMN FOR      08700002
.*                                      START OF PRINTING. THE LETTER   08760002
.*                                      B PRECEEDS THE NUMBER (B5) IF   08820002
.*                                      THE LATTER IS DESIRED. OMISSION 08880002
.*                                      OF THIS OPERAND FORCES OPTION 2 08940002
.*                                      WITH BACKUP SPACING EQUAL TO    09000002
.*                                 THE NUMBER OF BITS IN THE ITEM       09060002
.*                                 DEFINITION (VIA MACRO 'DSGEN').      09120002
.*                            A LIMIT OF 15 BITS IS IMPOSED FOR THE     09180002
.*                                 TOTAL NUMBER OF BITS TO PRINT.       09240002
         GBLA  &INITIAL                                                 09300002
         GBLB  &DIAGTST,&DIAGSET,&DIAGLIN                               09360002
         GBLC &ITEM(2000)                                               09420002
         GBLA &ITEMNBR,&BITS(2000),&SHIFT(2000),&NRENTS                 09480002
         GBLC  &DSECT                                                   09540002
         LCLB  &B,&SUB                                                  09600002
         LCLA  &IBITS,&NDX,&ISHIFT,&K                                   09660002
         LCLA  &TEMP,&T,&OP                                             09720002
         LCLC  &S                                                       09780002
         AIF   (&DIAGTST EQ 0).NOMSG                                    09840002
         AIF   (&INITIAL EQ 0).NOMSG                                    09900002
         AIF   (&DIAGLIN EQ 1).NOMSG                                    09960002
         MNOTE '**NO LINE ASSOCIATED WITH THIS DATA**'                  10020002
*****THE FOLLOWING GENERATED FOR TEST PURPOSES*****                     10080002
*        LINE                                                           10140002
         LINE                                                           10200002
.NOMSG   ANOP                                                           10260002
         AIF   (K'&SYSLIST(1) EQ K'&SYSLIST(1,1)).LOOP                  10320002
&SUB     SETB  1                                                        10380002
.LOOP    ANOP                                                           10440002
&OP      SETA  &OP+1                                                    10500002
.LOOP1   ANOP                                                           10560002
&NDX     SETA  &NDX+1                                                   10620002
         AIF   ('&ITEM(&NDX)' EQ '&SYSLIST(&OP,1)').FOUND               10680002
         AIF   (&NDX LT &ITEMNBR).LOOP1                                 10740002
         MNOTE '**LOG ITEM NOT DEFINED**'                               10800002
         MEXIT                                                          10860002
.FOUND   ANOP                                                           10920002
&ISHIFT  SETA  &SHIFT(&NDX)                                             10980002
&IBITS   SETA  &BITS(&NDX)                                              11040002
&T       SETA  &IBITS-1                                                 11100002
&B       SETB  0                                                        11160002
         AIF   (&IBITS GT 0 AND &IBITS LT 16).SUB0                      11220002
         MNOTE '**NO. OF BITS OUTSIDE RANGE OF 1-15**'                  11280002
         MEXIT                                                          11340002
.SUB0    AIF   (&SUB EQ 1).SUBA                                         11400002
         AIF   ('&SYSLIST(2)' EQ '').BACKUP                             11460002
&K       SETA  K'&SYSLIST(2)                                            11520002
&B       SETB  ('&SYSLIST(2)'(1,1) EQ 'B')                              11580002
&S       SETC  '&SYSLIST(2)'(&B+1,&K-&B)                                11640002
         AGO   .SUBB                                                    11700002
.SUBA    ANOP                                                           11760002
         AIF   ('&SYSLIST(&OP,2)' EQ '').BACKUP                         11820002
&K       SETA  K'&SYSLIST(&OP,2)                                        11880002
&B       SETB  ('&SYSLIST(&OP,2)'(1,1) EQ 'B')                          11940002
&S       SETC  '&SYSLIST(&OP,2)'(&B+1,&K-&B)                            12000002
.SUBB    ANOP                                                           12060002
&T       SETA  &S                                                       12120002
.BACKUP  ANOP                                                           12180002
&NRENTS  SETA  &NRENTS+1                                                12240002
&TEMP    SETA  &ISHIFT                                                  12300002
         AIF   (&IBITS NE 1 OR &B NE 0).BIN2                            12360002
         DC    AL.12(&SYSLIST(&OP,1)-&DSECT),XL.4'&TEMP'                12420002
         AGO   .OUT                                                     12480002
.BIN2    AIF   ('&SYSLIST(&OP,2)' NE '').BIN3                           12540002
&B       SETB  1                                                        12600002
.BIN3    ANOP                                                           12660002
         DC    AL.12(&SYSLIST(&OP,1)-&DSECT),XL.4'C'                    12720002
         DC    BL.1'&B',AL.7(&T),AL.4(&IBITS),FL.4'&ISHIFT'             12780002
.OUT     ANOP                                                           12840002
&NDX     SETA  0                                                        12900002
         AIF   (&SUB EQ 0).OUTA                                         12960002
         AIF   (&OP LT N'&SYSLIST).LOOP                                 13020002
.OUTA    ANOP                                                           13080002
         MEND                                                           13140002
         MACRO                                                          13200002
         HEX                                                            13260002
.*                            THIS MACRO FACILITATES GENERATION OF THE  13320002
.*                                 TABLE ENTRIES SPECIFYING HEX TYPE    13380002
.*                                 CONVERSIONS.                         13440002
.*                            &SYSLIST(&OP,1) - NAME OF DATA ITEM TO BE 13500002
.*                                 CONVERTED                            13560002
.*                            &SYSLIST(&OP,2) - # OF SPACES TO SKIP ON  13620002
.*                                 MULTIPLE PRINT OR NBR OF SPACES TO   13680002
.*                                 BACK UP FROM COLUMN FOR START OF     13740002
.*                                 PRINTING. THE LETTER B PRECEEDS THE  13800002
.*                                 NUMBER (B8) IF THE LATTER OPTION IS  13860002
.*                                 DESIRED. OMISSION OF THIS OPERAND    13920002
.*                                 FORCES OPTION 2 WITH BACKUP SPACING  13980002
.*                                 EQUAL TO THE NUMBER OF BYTES SPECI-  14040002
.*                                 FIED BY THE NEXT OPERAND (TWICE THIS 14100002
.*                                 NUMBER IF SUFFIX IS EXPLICITLY OR    14160002
.*                                 IMPLICITLY B).                       14220002
.*                            &SYSLIST(&OP,3) - NUMBER OF BYTES TO      14280002
.*                                 PROCESS. THIS NUMBER IS SUFFIXED     14340002
.*                                 WITH AN L,R, OR B TO STIPULATE       14400002
.*                                 PRINTING OF THE LEFT HALF, RIGHT     14460002
.*                                 HALF, OR BOTH HALVES OF THE BYTE     14520002
.*                                 RESPECTIVELY. OMISSION OF THIS       14580002
.*                                 OPERAND DEFAULTS TO B WITH THE NUM-  14640002
.*                                 BER OF BYTES EQUAL TO THE ITEM LNGTH 14700002
.*                            A NEW ENTRY IS GENERATED ONLY WHEN NECES- 14760002
.*                                 SARY. THIS MACRO MUST BE THE FIRST   14820002
.*                                 MACRO INSTRUCTION ISSUED FOR THE     14880002
.*                                 SUBJECT LINE(S).                     14940002
         GBLC &ITEM(2000),&DSECT                                        15000002
         GBLA &ITEMNBR,&BITS(2000),&SHIFT(2000),&NRENTS                 15060002
         GBLA  &INITIAL                                                 15120002
         GBLB  &DIAGTST,&DIAGSET,&DIAGLIN                               15180002
         LCLB  &B,&SUB                                                  15240002
         LCLA  &IBITS,&NDX,&ISHIFT,&K,&T,&CODE,&BYTESP,&OP              15300002
         LCLC  &S,&LETTER                                               15360002
         AIF   (&DIAGTST EQ 0).NOMSG                                    15420002
         AIF   (&INITIAL EQ 0).NOMSG                                    15480002
         AIF   (&DIAGLIN EQ 1).NOMSG                                    15540002
         MNOTE '**NO LINE ASSOCIATED WITH THIS DATA**'                  15600002
*****THE FOLLOWING GENERATED FOR TEST PURPOSES*****                     15660002
*        LINE                                                           15720002
         LINE                                                           15780002
.NOMSG   ANOP                                                           15840002
         AIF   (K'&SYSLIST(1) EQ K'&SYSLIST(1,1)).LOOP                  15900002
&SUB     SETB  1                                                        15960002
.LOOP    ANOP                                                           16020002
&OP      SETA  &OP+1                                                    16080002
.LOOP1   ANOP                                                           16140002
&NDX     SETA  &NDX+1                                                   16200002
         AIF   ('&ITEM(&NDX)' EQ '&SYSLIST(&OP,1)').FOUND               16260002
         AIF   (&NDX LT &ITEMNBR).LOOP1                                 16320002
         MNOTE '**LOG ITEM NOT DEFINED**'                               16380002
         MEXIT                                                          16440002
.FOUND   ANOP                                                           16500002
&ISHIFT  SETA  &SHIFT(&NDX)                                             16560002
&IBITS   SETA  &BITS(&NDX)                                              16620002
         AIF   (&ISHIFT EQ 0 OR &ISHIFT EQ 4).ALIGN                     16680002
.ERR     MNOTE '**DATA NOT ALLIGNED ON HEX OR BYTE BOUNDARY**'          16740002
         MEXIT                                                          16800002
.ALIGN   ANOP                                                           16860002
&CODE    SETA  1                                                        16920002
         AIF   (&SUB EQ 1).SUBA                                         16980002
&K       SETA  K'&SYSLIST(3)                                            17040002
         AGO   .SUBB                                                    17100002
.SUBA    ANOP                                                           17160002
&K       SETA  K'&SYSLIST(&OP,3)                                        17220002
.SUBB    ANOP                                                           17280002
         AIF   (&IBITS-(&IBITS/4)*4 EQ 0).OK                            17340002
         MNOTE '**BIT LENGTH SPECIFICATION INCONSISTENT WITH CONTROL**' 17400002
         MEXIT                                                          17460002
.OK      AIF   (&SUB EQ 1).SUBC                                         17520002
         AIF   ('&SYSLIST(3)' EQ '').USEDEFN                            17580002
&LETTER  SETC  '&SYSLIST(3)'(&K,1)                                      17640002
&S       SETC  '&SYSLIST(3)'(1,&K-1)                                    17700002
         AGO   .SUBD                                                    17760002
.SUBC    ANOP                                                           17820002
         AIF   ('&SYSLIST(&OP,3)' EQ '').USEDEFN                        17880002
&LETTER  SETC  '&SYSLIST(&OP,3)'(&K,1)                                  17940002
&S       SETC  '&SYSLIST(&OP,3)'(1,&K-1)                                18000002
.SUBD    ANOP                                                           18060002
&BYTESP  SETA  &S                                                       18120002
         AIF   ('&LETTER' EQ 'B').BOTH                                  18180002
         AIF   ('&LETTER' EQ 'L').LEFT                                  18240002
&CODE    SETA  2                                                        18300002
         AGO   .L                                                       18360002
.LEFT    ANOP                                                           18420002
&CODE    SETA  1                                                        18480002
         AGO   .L                                                       18540002
.USEDEFN ANOP                                                           18600002
&BYTESP  SETA  &IBITS/8                                                 18660002
.BOTH    AIF   (&ISHIFT NE 0).ERR                                       18720002
&CODE    SETA  3                                                        18780002
&T       SETA  &BYTESP*2-1                                              18840002
&S       SETC  '&T'                                                     18900002
.OK2     AIF   (&ISHIFT EQ 0).L                                         18960002
&CODE    SETA  2                                                        19020002
.L       ANOP                                                           19080002
&B       SETB  1                                                        19140002
         AIF   (&SUB EQ 1).SUBE                                         19200002
         AIF   ('&SYSLIST(2)' EQ '').BACKUP                             19260002
&K       SETA  K'&SYSLIST(2)                                            19320002
&B       SETB  ('&SYSLIST(2)'(1,1) EQ 'B')                              19380002
&S       SETC  '&SYSLIST(2)'(&B+1,&K-&B)                                19440002
         AGO   .SUBF                                                    19500002
.SUBE    ANOP                                                           19560002
         AIF   ('&SYSLIST(&OP,2)' EQ '').BACKUP                         19620002
&K       SETA  K'&SYSLIST(&OP,2)                                        19680002
&B       SETB  ('&SYSLIST(&OP,2)'(1,1) EQ 'B')                          19740002
&S       SETC  '&SYSLIST(&OP,2)'(&B+1,&K-&B)                            19800002
.SUBF    ANOP                                                           19860002
.BACKUP  ANOP                                                           19920002
&NRENTS  SETA  &NRENTS+1                                                19980002
         AIF   (&BYTESP GT 0 AND &BYTESP LT 16).SUB0                    20040002
         MNOTE '**NO. OF BYTES OUTSIDE RANGE OF 1-15**'                 20100002
         MEXIT                                                          20160002
.SUB0    AIF   (&SUB EQ 1).SUBG                                         20220002
         DC    AL.12(&SYSLIST(1)-&DSECT),XL.4'A'                        20280002
         AGO   .SUBH                                                    20340002
.SUBG    ANOP                                                           20400002
         DC    AL.12(&SYSLIST(&OP,1)-&DSECT),XL.4'A'                    20460002
.SUBH    ANOP                                                           20520002
         DC    BL.1'&B',FL.7'&S',AL.4(&BYTESP),FL.4'&CODE'              20580002
.OUT     ANOP                                                           20640002
&NDX     SETA  0                                                        20700002
         AIF   (&SUB EQ 0).OUTA                                         20760002
         AIF   (&OP LT N'&SYSLIST).LOOP                                 20820002
.OUTA    ANOP                                                           20880002
         MEND                                                           20940002
         MACRO                                                          21000002
         LSTART                                                         21060002
.*                            THIS MACRO IS ISSUED WHEN THE LABEL AREA  21120002
.*                                 OF THE TABLE IS TO BEGIN.            21180002
         GBLA  &LABELNR                                                 21240002
         GBLC  &LBL(100)                                                21300002
         GBLC &LABELS(2000)                                             21360002
         GBLA  &LBLCTR(100)                                             21420002
         GBLB  &DIAGTST,&DIAGSET,&DIAGLIN                               21480002
         LCLA  &NDX,&CTR                                                21540002
         AIF   (&DIAGTST EQ 0).NODIAG                                   21600002
         AIF   (&DIAGSET EQ 0).NODIAG                                   21660002
         MNOTE '**NO LABEL ASSOCIATED WITH LAST SET**'                  21720002
***** THE FOLLOWING GENERATED FOR TEST PURPOSES *****                   21780002
*        LABEL '%%%%%%%%%%%%%%%%%%%%%%%%%%%%%%%%%%%%%%%%%%%%%%%%'       21840002
               LABEL '%%%%%%%%%%%%%%%%%%%%%%%%%%%%%%%%%%%%%%%%%%%%%%%%' 21900002