         TITLE 'IFCSCUA0  MES DATA SUMMARY BY CUA'                      00105002
         MACRO                                                          00210002
&NAME    DSGEN                                                          00315002
.*                            THIS MACRO GENERATES ONE DSECT WORD       00420002
.*                                 FORMATTED FOR THE SUBJECT LOG RECORD 00525002
.*                                 EACH OPERAND HAS TWO SUB LISTS. THE  00630002
.*                                 FIRST IS THE NAME OF THE LOG ITEM    00735002
.*                                 WHILE THE SECOND IS THE # OF BITS TO 00840002
.*                                 ALLOCATE FOR THIS ITEM. ITEMS MUST   00945002
.*                                 BE DEFINED CONTIGUOUSLY WITHOUT GAPS 01050002
.*                                 UNUSED BIT GROUPS MUST BE GIVEN      01155002
.*                                 DUMMY NAMES. THE NAMES PROVIDED FOR  01260002
.*                                 THE LOG ITEMS MAY THEN BE USED IN    01365002
.*                                 THE CONVERSION MACRO INSTRUCTIONS.   01470002
         GBLC &ITEM(1000)                                               01575002
         GBLA &ITEMNBR,&BITS(1000),&SHIFT(1000)                         01680002
         LCLB  &ONLY1,&CTIND                                            01785002
         LCLA  &START1,&START2,&END1,&END2                              01890002
         LCLC  &SYMBOL,&EQUSYM                                          01995002
         LCLA  &OP,&COUNT,&BYTE,&EQUCNT                                 02100002
         ACTR  100000                                                   02205002
.START   AIF   (N'&SYSLIST(&OP+1) LT 3).LOOP                            02310002
         AIF   ('&SYSLIST(&OP+1,3)' EQ 'EQU').LOOP     TEST FOR EQU     02415002
  AIF   ('&SYSLIST(&OP+1,3)' EQ '' AND '&SYSLIST(&OP+1,4)' EQ '').ERR1  02520002
  AIF   ('&SYSLIST(&OP+1,3)' EQ '' OR '&SYSLIST(&OP+1,4)' EQ '').ERR1   02625002
         AIF   ('&SYSLIST(&OP+1,3)' GT '&SYSLIST(&OP+1,4)').ERR3        02730002
&START1  SETA  &SYSLIST(&OP+1,3)        GET START COUNT OF 1            02835002
&START2  SETA  &SYSLIST(&OP+1,4)        GET FIRST END COUNT             02940002
         AGO   .SET2A                   BRANCH AROUND                   03045002
.ERR1    MNOTE '**FIRST SYMBOL CONCATENATION INCOMPLETE**'              03150002
         MEXIT                                                          03255002
.SET2A   AIF   ('&SYSLIST(&OP+1,5)' EQ ''AND '&SYSLIST(&OP+1,6)' EQ '' X03360002
               ).SET2                   TEST FOR NO SECOND              03465002
  AIF   ('&SYSLIST(&OP+1,5)' EQ '' OR '&SYSLIST(&OP+1,6)' EQ '').ERR2   03570002
         AIF   ('&SYSLIST(&OP+1,5)' GT '&SYSLIST(&OP+1,6)').ERR3        03675002
&END1    SETA  &SYSLIST(&OP+1,5)        GET START COUNT OF 2            03780002
&END2    SETA  &SYSLIST(&OP+1,6)        GET END COUNT OF 2              03885002
         AGO   .LOOP                                                    03990002
.SET2    ANOP                                                           04095002
&ONLY1   SETB  1                        INDICATE ONLY ONE CONCATENATION 04200002
         AGO   .LOOP                                                    04305002
.ERR2    MNOTE '**SECOND SYMBOL CONCATENATION INCOMPLETE**'             04410002
         MEXIT                                                          04515002
.ERR3    MNOTE '**START GREATER THAN END CONCATENATION**'               04620002
         MEXIT                                                          04725002
.LOOP    ANOP                                                           04830002
&OP      SETA  &OP+1                                                    04935002
         AIF   (&OP GT N'&SYSLIST).DONE      TEST IF ALL DONE           05040002
&ITEMNBR SETA  &ITEMNBR+1                                               05145002
         AIF   ('&SYSLIST(&OP,2)' NE '').OK1                            05250002
         MNOTE '**NULL BIT COUNT FIELD**'                               05355002
         MEXIT                                                          05460002
.OK1     ANOP                                                           05565002
&SYMBOL  SETC  '&SYSLIST(&OP,1)'                                        05670002
         AIF   ('&SYMBOL' NE '').OK                                     05775002
*              *****     LOG ITEM SYMBOL NOT PROVIDED     *****         05880002
         AIF   ('&SYSLIST(&OP,3)' NE 'EQU').CNT                         05985002
         AGO   .START                   GET NEXT                        06090002
.OK      AIF   (N'&SYSLIST(&OP) LT 3).NO3    TEST FOR OLD FORMAT        06195002
         AIF   ('&SYSLIST(&OP,3)' EQ 'EQU').EQU   TEST FOR EQU          06300002
         AIF   (&ONLY1).OK2             TEST FOR ONLY ONE CONCAT        06405002
&SYMBOL  SETC  '&SYMBOL.&START1.&END1'       GET 1 AND 2 CONCAT         06510002
         AGO   .NO3                     BRANCH AROUND                   06615002
.OK2     ANOP                                                           06720002
&SYMBOL  SETC  '&SYMBOL.&START1'        GET 1 CONCATENATED              06825002
.NO3     ANOP                                                           06930002
&SYMBOL  EQU   *+&BYTE                                                  07035002
&ITEM(&ITEMNBR) SETC '&SYMBOL'          GET LABEL IN GLOBAL             07140002
&BITS(&ITEMNBR) SETA &SYSLIST(&OP,2)                                    07245002
&SHIFT(&ITEMNBR) SETA &COUNT-&BYTE*8                                    07350002
.CNT     ANOP                                                           07455002
&CTIND   SETB  1                        SET COUNT INDICATOR             07560002
&COUNT   SETA  &COUNT+&SYSLIST(&OP,2)                                   07665002
&BYTE    SETA  &COUNT/8                                                 07770002
         AIF   (N'&SYSLIST(&OP) LT 3).START  TEST FOR OLD FORMAT        07875002
         AIF   (&ONLY1).TSTST           TEST FOR ONLY ONE CONCAT        07980002
         AIF   (&END1 EQ &END2).TSTST   TEST FOR SECOND END             08085002
&END1    SETA  &END1+1                  INCREMENT COUNT                 08190002
&OP      SETA  &OP-1                    DECREMENT INCREMENT             08295002
         AGO   .LOOP                    GENERATE NEXT                   08400002
.TSTST   ANOP                                                           08505002
         AIF   (&START1 EQ &START2).LPDONE   TEST FOR END               08610002
         AIF   (&ONLY1).NSET1           TEST FOR ONLY ONE CONCAT        08715002
&END1    SETA  &SYSLIST(&OP,5)          RE-INIT SECOND START COUNT      08820002
.NSET1   ANOP                                                           08925002
&OP      SETA  &OP-1                    DECREMENT INDEX                 09030002
&START1  SETA  &START1+1                INCREMENT FIRST COUNT           09135002
         AGO   .LOOP                    GO DO NEXT                      09240002
.LPDONE  ANOP                                                           09345002
&ONLY1   SETB  0                        CLEAR INDICATOR                 09450002
         AGO   .START                   GO TEST FOR MORE SUB-LISTS      09555002
.DONE    AIF   (&COUNT-&COUNT/8*8 NE 0).ERR  TEST FOR MULTIPLE OF EIGHT 09660002
         AIF   (&CTIND EQ 0).END        NO DS IF NO COUNT               09765002
&COUNT   SETA  &COUNT/8                 GET NUMBER OF BYTES             09870002
&NAME    DS    &COUNT.C                                                 09975002
.END     MEXIT                                                          10080002
.ERR     MNOTE '**BIT COUNT FLDS DO NOT TOTAL MULTIPLE OF 8**'          10185002
         MEXIT                                                          10290002
.EQU     AIF   ('&SYSLIST(&OP,4)' NE '').EQU1     TEST FOR NULL LABEL   10395002
.ERR4    MNOTE '**EQU OPERAND OMITTED OR NOT FOUND**'                   10500002
         MEXIT                                                          10605002
.EQU1    AIF   (&SYSLIST(&OP,2) LT 16).EQU2  COUNT OVER FIFTEEN         10710002
*****               THE FOLLOWING STATEMENT                *****        10815002
*****     NUMBER OF BITS EXCEED 15 - DO NOT USE AS BIN     *****        10920002
.EQU2    ANOP                                                           11025002
&EQUCNT  SETA  0                        CLEAR COUNTER                   11130002
&EQUSYM  SETC  '&SYSLIST(&OP,4)'        GET EQU OPERAND                 11235002
.EQULOP  ANOP                                                           11340002
&EQUCNT  SETA  &EQUCNT+1                INCREMENT INDEX                 11445002
         AIF   ('&ITEM(&EQUCNT)' EQ '&EQUSYM').EQUOUT  LABEL FOUND?     11550002
         AIF   (&EQUCNT EQ &ITEMNBR).ERR3    ALL TESTED?                11655002
         AGO   .EQULOP                  NO-GET NEXT                     11760002
.EQUOUT  ANOP                                                           11865002
&ITEM(&ITEMNBR) SETC '&SYMBOL'          GET LABEL NAME                  11970002
&BITS(&ITEMNBR) SETA &SYSLIST(&OP,2)    GET NUMBER OF BITS              12075002
&SHIFT(&ITEMNBR) SETA &SHIFT(&EQUCNT)   GET SHIFT COUNT                 12180002
&SYMBOL  EQU   &EQUSYM                  THIS SYMBOL EQUATED             12285002
         AGO   .START                   RETURN FOR NEXT                 12390002
         MEND                                                           12495002
*  LINE MACRO     LINE MACRO     LINE MACRO     LINE MACRO            * 12600002
         SPACE 2                                                        12705002
         MACRO                                                          12810002
&NAME    LINE  &DATA,&LABEL,&SKIP=                                      12915002
.*                            THIS MACRO ESTABLISHES THE MARGINS OR     13020002
.*                                 COLUMN SETTINGS FOR EACH LINE. IT    13125002
.*                                 GENERATES NECESSARY CARRIAGE CONTROL 13230002
.*                                 ENTRIES. LASTLY IT DETERMINES THE    13335002
.*                                 NUMBER OF ENTRIES ASSOCIATED WITH    13440002
.*                                 THE PREVIOUS LINE AND STORES THAT #  13545002
.*                                 INTO THE APPROPRIATE BYTE.           13650002
.*                            &DATA(1) - CHARACTER POSITION TO BEGIN    13755002
.*                                 DATA.                                13860002
.*                            &DATA(2) - # OF SPACES BETWEEN SUCCESSIVE 13965002
.*                                 DATA COLUMN STARTING CHARACTERS.     14070002
.*                            &LABEL(1) - CHAR. POS. TO BEGIN LABELS.   14175002
.*                            &LABEL(2) - # SPACES BETWEEN LINE'S LABEL 14280002
.*                                 STARTING CHARACTERS.                 14385002
.*                            &SKIP= - # OF LINES TO ADVANCE CARRIAGE   14490002
.*                                 TO BEGIN NEXT PRINTED LINE.          14595002
.*                            NEW ENTRIES ARE GENERATED ONLY WHEN       14700002
.*                                 NECESSARY. OMISSION OF ITEMS MEANS   14805002
.*                                 THEY HAVE NOT CHANGED SINCE PREVIOUS 14910002
.*                                 SETTINGS. A LINE MACRO IS REQUIRED   15015002
.*                                 FOR EACH PRINTED LINE. IF NO SETTING 15120002
.*                                 CHANGES ARE REQUIRED ALL OPERANDS    15225002
.*                                 ARE OMITTED IN WHICH CASE ONLY THE   15330002
.*                                 # OF ENTRIES FOR THE PREVIOUS LINE   15435002
.*                                 IS COMPUTED. THIS MACRO MUST BE THE  15540002
.*                                 FIRST MACRO INSTRUCTION ISSUED FOR   15645002
.*                                 THE SUBJECT LINE                     15750002
         GBLA  &DB,&DT,&LB,&LT,&NRENTS                                  15855002
         GBLA  &LASTCC,&INITIAL                                         15960002
         GBLC  &NRENTSX                                                 16065002
         GBLC  &CARRCON                                                 16170002
         GBLB  &TEST                                                    16275002
         LCLA  &S                                                       16380002
&NAME    DS    0C                                                       16485002
         AIF   (&INITIAL EQ 0).FIRSTLN                                  16590002
         LINEND                                                         16695002
         AGO   .NTFIRST                                                 16800002
.FIRSTLN ANOP                                                           16905002
&NRENTSX SETC  'N&SYSNDX'                                               17010002
&INITIAL SETA  1                                                        17115002
N&SYSNDX EQU   *                                                        17220002
.NTFIRST ANOP                                                           17325002
         DC    AL1(0)                                                   17430002
         AIF   ('&DATA(1)' EQ '').CKDTABS                               17535002
         AIF   (&DATA(1) EQ &DB).CKDTABS                                17640002
&DB      SETA  &DATA(1)                                                 17745002
         AGO   .AA                                                      17850002
.CKDTABS AIF   ('&DATA(2)' EQ '').NCDATA                                17955002
         AIF   (&DATA(2) EQ &DT).NCDATA                                 18060002
         AGO   .CC                                                      18165002
.AA      AIF   ('&DATA(2)' EQ '').BB                                    18270002
         AIF   (&DATA(2) EQ &DT).BB                                     18375002
.CC      ANOP                                                           18480002
&DT      SETA  &DATA(2)                                                 18585002
.BB      DC    XL2'FFFE'                                                18690002
         DC    FL1'&DB'                                                 18795002
         DC    FL1'&DT'                                                 18900002
&NRENTS  SETA  &NRENTS+1                                                19005002
.NCDATA  ANOP                                                           19110002
         AIF   ('&LABEL(1)' EQ '').CKLTABS                              19215002
         AIF   (&LABEL(1) EQ &LB).CKLTABS                               19320002
&LB      SETA  &LABEL(1)                                                19425002
         AGO   .AAA                                                     19530002
.CKLTABS AIF   ('&LABEL(2)' EQ '').NCLABEL                              19635002
         AIF   (&LABEL(2) EQ &LT).NCLABEL                               19740002
         AGO   .CCC                                                     19845002
.AAA     AIF   ('&LABEL(2)' EQ '').BBB                                  19950002
         AIF   (&LABEL(2) EQ &LT).BBB                                   20055002
.CCC     ANOP                                                           20160002
&LT      SETA  &LABEL(2)                                                20265002
.BBB     DC    XL2'FFFF'                                                20370002
         DC    FL1'&LB'                                                 20475002
         DC    FL1'&LT'                                                 20580002
&NRENTS  SETA  &NRENTS+1                                                20685002
.NCLABEL ANOP                                                           20790002
         AIF   ('&SKIP' NE '').CONT                                     20895002
         AIF   (&TEST EQ 0).NOCHANG                                     21000002
&S       SETA  &LASTCC                                                  21105002
         AGO   .DEFAULT                                                 21210002
.CONT    ANOP                                                           21315002
         AIF   (&TEST EQ 0).AB                                          21420002
&S       SETA  &SKIP                                                    21525002
.DEFAULT ANOP                                                           21630002
         ORG   &CARRCON+3                                               21735002
         DC    AL.3(0),AL.2(&S),AL.3(1)                                 21840002
         ORG                                                            21945002
&LASTCC  SETA  &S                                                       22050002
&TEST    SETB  0                                                        22155002
         AGO   .DD                                                      22260002
.AB      AIF   (&SKIP EQ &LASTCC).NOCHANG                               22365002
A&SYSNDX DC    XL2'FFFB'                                                22470002
         DC    AL.3(0),AL.2(&SKIP),AL.3(1)                              22575002
         DC    FL1'9'                                                   22680002
&LASTCC  SETA  &SKIP                                                    22785002
&TEST    SETB  1                                                        22890002
&CARRCON SETC  'A&SYSNDX'                                               22995002
&NRENTS  SETA  &NRENTS+1                                                23100002
.DD      ANOP                                                           23205002
.NOCHANG ANOP                                                           23310002
         MEND                                                           23415002
         EJECT                                                          23520002
*  BIN MACRO     BIN MACRO     BIN MACRO     BIN MACRO     BIN MACRO  * 23625002
         SPACE 2                                                        23730002
         MACRO                                                          23835002
         BIN   &LOGITEM,&SKIP$OR                                        23940002
.*                                 &LOGITEM - NAME OF ITEM IN LOG       24045002
.*                                      RECORD DSECT                    24150002
.*                                 &SKIP$OR - NBR OF SPACES TO SKIP ON  24255002
.*                                 MULTIPLE PRINT OR NBR OF SPACES      24360002
.*                                      TO BACK UP FROM COLUMN FOR      24465002
.*                                      START OF PRINTING. THE LETTER   24570002
.*                                      B PRECEEDS THE NUMBER (B5) IF   24675002
.*                                      THE LATTER IS DESIRED. OMISSION 24780002
.*                                      OF THIS OPERAND FORCES OPTION 2 24885002
.*                                      WITH BACKUP SPACING EQUAL TO    24990002
.*                                 THE NUMBER OF BITS IN THE ITEM       25095002
.*                                 DEFINITION (VIA MACRO 'DSGEN').      25200002
.*                            A LIMIT OF 15 BITS IS IMPOSED FOR THE     25305002
.*                                 TOTAL NUMBER OF BITS TO PRINT.       25410002
         GBLC &ITEM(1000)                                               25515002
         GBLA &ITEMNBR,&BITS(1000),&SHIFT(1000),&NRENTS                 25620002
         GBLC  &DSECT                                                   25725002
         LCLB  &B                                                       25830002
         LCLA  &IBITS,&NDX,&ISHIFT,&K                                   25935002
         LCLA  &TEMP,&T                                                 26040002
         LCLC  &S                                                       26145002
.LOOP    ANOP                                                           26250002
&NDX     SETA  &NDX+1                                                   26355002
         AIF   ('&ITEM(&NDX)' EQ '&LOGITEM').FOUND                      26460002
         AIF   (&NDX LT &ITEMNBR).LOOP                                  26565002
         MNOTE *,'YOU BLEW IT'                                          26670002
         ROUTINE DUM,SKIPPER                                            26775002
         MEXIT                                                          26880002
.FOUND   ANOP                                                           26985002
&ISHIFT  SETA  &SHIFT(&NDX)                                             27090002
&IBITS   SETA  &BITS(&NDX)                                              27195002
&T       SETA  &IBITS-1                                                 27300002
&B       SETB  0                                                        27405002
         AIF   ('&SKIP$OR' EQ '').BACKUP                                27510002
&K       SETA  K'&SKIP$OR                                               27615002
&B       SETB  ('&SKIP$OR'(1,1) EQ 'B')                                 27720002
&S       SETC  '&SKIP$OR'(&B+1,&K-&B)                                   27825002
&T       SETA  &S                                                       27930002
.BACKUP  ANOP                                                           28035002
&NRENTS  SETA  &NRENTS+1                                                28140002
&TEMP    SETA  &ISHIFT                                                  28245002
A&SYSNDX DC    AL.12(&LOGITEM-&DSECT),XL.4'&TEMP'                       28350002
         AIF (&IBITS EQ 1 AND &B EQ 0).OUT                              28455002
         ORG   A&SYSNDX                                                 28560002
&B       SETB  1                                                        28665002
         DC    AL.12(&LOGITEM-&DSECT),XL.4'C'                           28770002
         DC    BL.1'&B',AL.7(&T),AL.4(&IBITS),FL.4'&ISHIFT'             28875002
.OUT     ANOP                                                           28980002
         MEND                                                           29085002
         EJECT                                                          29190002
*  HEX MACRO     HEX MACRO     HEX MACRO    HEXN MACRO     HEX MACRO  * 29295002
         SPACE 2                                                        29400002
         MACRO                                                          29505002
         HEX   &LOGITEM,&SKIP$OR,&BYTES                                 29610002
.*                            THIS MACRO FACILITATES GENERATION OF THE  29715002
.*                                 TABLE ENTRIES SPECIFYING HEX TYPE    29820002
.*                                 CONVERSIONS.                         29925002
.*                            &LOGITEM - NAME OF DATA ITEM TO BE        30030002
.*                                 CONVERTED                            30135002
.*                            &SKIP$OR - NUMBER OF SPACES TO SKIP ON    30240002
.*                                 MULTIPLE PRINT OR NBR OF SPACES TO   30345002
.*                                 BACK UP FROM COLUMN FOR START OF     30450002
.*                                 PRINTING. THE LETTER B PRECEEDS THE  30555002
.*                                 NUMBER (B8) IF THE LATTER OPTION IS  30660002
.*                                 DESIRED. OMISSION OF THIS OPERAND    30765002
.*                                 FORCES OPTION 2 WITH BACKUP SPACING  30870002
.*                                 EQUAL TO THE NUMBER OF BYTES SPECI-  30975002
.*                                 FIED BY THE NEXT OPERAND (TWICE THIS 31080002
.*                                 NUMBER IF SUFFIX IS EXPLICITLY OR    31185002
.*                                 IMPLICITLY B).                       31290002
.*                            &BYTES - NUMBER OF TOTAL INPUT BYTES TO   31395002
.*                                 PROCESS. THIS NUMBER IS SUFFIXED     31500002
.*                                 WITH AN L,R, OR B TO STIPULATE       31605002
.*                                 PRINTING OF THE LEFT HALF, RIGHT     31710002
.*                                 HALF, OR BOTH HALVES OF THE BYTE     31815002
.*                                 RESPECTIVELY. OMISSION OF THIS       31920002
.*                                 OPERAND DEFAULTS TO B WITH THE NUM-  32025002
.*                                 BER OF BYTES EQUAL TO THE ITEM LNGTH 32130002
.*                            A NEW ENTRY IS GENERATED ONLY WHEN NECES- 32235002
.*                                 SARY. THIS MACRO MUST BE THE FIRST   32340002
.*                                 MACRO INSTRUCTION ISSUED FOR THE     32445002
.*                                 SUBJECT LINE(S).                     32550002
         GBLC &ITEM(1000),&DSECT                                        32655002
         GBLA &ITEMNBR,&BITS(1000),&SHIFT(1000),&NRENTS                 32760002
         LCLB  &B                                                       32865002
         LCLA  &IBITS,&NDX,&ISHIFT,&K,&T,&CODE,&BYTESP                  32970002
         LCLC  &S,&LETTER                                               33075002
.LOOP    ANOP                                                           33180002
&NDX     SETA  &NDX+1                                                   33285002
         AIF   ('&ITEM(&NDX)' EQ '&LOGITEM').FOUND                      33390002
         AIF   (&NDX LT &ITEMNBR).LOOP                                  33495002
         MNOTE *,'LOG ITEM NOT DEFINED'                                 33600002
         MEXIT                                                          33705002
.FOUND   ANOP                                                           33810002
&ISHIFT  SETA  &SHIFT(&NDX)                                             33915002
&IBITS   SETA  &BITS(&NDX)                                              34020002
&CODE    SETA  1                                                        34125002
&K       SETA  K'&BYTES                                                 34230002
         AIF   (&IBITS-(&IBITS/4)*4 EQ 0).OK                            34335002
         MNOTE *,'BIT LENGTH SPECIFICATION INCONSISTENT WITH CONTROL'   34440002
         MEXIT                                                          34545002
.OK      AIF   ('&BYTES' EQ '').USEDEFN                                 34650002
&LETTER  SETC  '&BYTES'(&K,1)                                           34755002
&S       SETC  '&BYTES'(1,&K-1)                                         34860002
&BYTESP  SETA  &S                                                       34965002
         AIF   ('&LETTER' EQ 'B').BOTH                                  35070002
         AIF   (&ISHIFT EQ 0 OR &ISHIFT EQ 4).OK2                       35175002
.ERR     MNOTE *,'DATA NOT ALLIGNED ON HEX OR BYTE BOUNDARY'            35280002
         MEXIT                                                          35385002
.USEDEFN ANOP                                                           35490002
&BYTESP  SETA  &IBITS/8                                                 35595002
.BOTH    AIF   (&ISHIFT NE 0).ERR                                       35700002
&CODE    SETA  3                                                        35805002
&T       SETA  &BYTESP*2-1                                              35910002
&S       SETC  '&T'                                                     36015002
.OK2     AIF   (&ISHIFT EQ 0).L                                         36120002
&CODE    SETA  2                                                        36225002
.L       ANOP                                                           36330002
&B       SETB  1                                                        36435002
         AIF   ('&SKIP$OR' EQ '').BACKUP                                36540002
&K       SETA  K'&SKIP$OR                                               36645002
&B       SETB  ('&SKIP$OR'(1,1) EQ 'B')                                 36750002
&S       SETC  '&SKIP$OR'(&B+1,&K-&B)                                   36855002
.BACKUP  ANOP                                                           36960002
&NRENTS  SETA  &NRENTS+1                                                37065002
         DC    AL.12(&LOGITEM-&DSECT),XL.4'A'                           37170002
         DC    BL.1'&B',FL.7'&S',FL.4'&BYTESP',FL.4'&CODE'              37275002
.OUT     ANOP                                                           37380002
         MEND                                                           37485002
         SPACE 2                                                        37590002
*  ROUTINE MACRO     ROUTINE MACRO     ROUTINE MACRO     ROUTINE MACRO* 37695002
         SPACE 2                                                        37800002
         MACRO                                                          37905002
&NAME    ROUTINE &LOGITEM,&RNAME                                        38010002
         GBLC  &DSECT,&CSECT                                            38115002
         GBLC  &ITEM(1000)                                              38220002
         GBLA  &SHIFT(1000),&ITEMNBR                                    38325002