         TITLE 'IFCSXXX9 - SUM TABLE - LINKNAME=IFCS2250, ALIASES=IFCS2C00065042
               260,IFCS2280,IFCS2282,IFCS3505,IFCS3525'                 00130042
         SPACE 2                                                        00195042
*  LINE MACRO     LINE MACRO     LINE MACRO     LINE MACRO            * 00260042
         MACRO                                                          00325042
&NAME    LINE  &DATA,&LABEL,&SKIP=                                      00390042
.*                            THIS MACRO ESTABLISHES THE MARGINS OR     00455042
.*                                 COLUMN SETTINGS FOR EACH LINE. IT    00520042
.*                                 GENERATES NECESSARY CARRIAGE CONTROL 00585042
.*                                 ENTRIES. LASTLY IT DETERMINES THE    00650042
.*                                 NUMBER OF ENTRIES ASSOCIATED WITH    00715042
.*                                 THE PREVIOUS LINE AND STORES THAT #  00780042
.*                                 INTO THE APPROPRIATE BYTE.           00845042
.*                                 &DATA(1) - CHARACTER POSITION TO     00910042
.*                                 BEGIN DATA.                          00975042
.*                                                                      01040042
.*                                 &DATA(2) - # OF SPACES BETWEEN       01105042
.*                                 SUCCESSIVE DATA COLUMN STARTING      01170042
.*                                 CHARACTERS.                          01235042
.*                                                                      01300042
.*                                 &LABEL(1) - CHARACTER POSITION       01365042
.*                                 TO BEGIN LABELS.                     01430042
.*                                                                      01495042
.*                                 &LABEL(2) - # OF SPACES BETWEEN      01560042
.*                                 LINE'S LABEL STARTING CHARACTERS.    01625042
.*                                                                      01690042
.*                                 &SKIP= - # OF LINES TO ADVANCE       01755042
.*                                 CARRIAGE TO BEGIN NEXT PRINTED LINE. 01820042
.*                                                                      01885042
.*                                 NEW ENTRIES ARE GENERATED ONLY WHEN  01950042
.*                                 NECESSARY. OMISSION OF ITEMS MEANS   02015042
.*                                 THEY HAVE NOT CHANGED SINCE PREVIOUS 02080042
.*                                 SETTINGS. A LINE MACRO IS REQUIRED   02145042
.*                                 FOR EACH PRINTED LINE. IF NO SETTING 02210042
.*                                 CHANGES ARE REQUIRED ALL OPERANDS    02275042
.*                                 ARE OMITTED IN WHICH CASE ONLY THE   02340042
.*                                 # OF ENTRIES FOR THE PREVIOUS LINE   02405042
.*                                 FIRST MACRO INSTRUCTION ISSUED FOR   02470042
.*                                 THE SUBJECT LINE.                    02535042
         GBLA  &DB,&DT,&LB,&LT,&NRENTS                                  02600042
         GBLA  &LASTCC,&INITIAL                                         02665042
         GBLC  &NRENTSX                                                 02730042
         GBLC  &CARRCON                                                 02795042
         GBLB  &TEST                                                    02860042
         LCLA  &S                                                       02925042
&NAME    DS    0C                                                       02990042
         AIF   (&INITIAL EQ 0).FIRSTLN                                  03055042
         LINEND                                                         03120042
         AGO   .NTFIRST                                                 03185042
.FIRSTLN ANOP                                                           03250042
&NRENTSX SETC  'N&SYSNDX'                                               03315042
&INITIAL SETA  1                                                        03380042
&LASTCC  SETA  1                                                        03445042
N&SYSNDX EQU   *                                                        03510042
.NTFIRST ANOP                                                           03575042
         DC    AL1(0)                                                   03640042
         AIF   ('&DATA(1)' EQ '').CKDTABS                               03705042
         AIF   ('&DATA'(1,1) NE '(').SLABEL                             03770042
         AIF   (&DATA(1) EQ &DB).CKDTABS                                03835042
&DB      SETA  &DATA(1)                                                 03900042
         AGO   .AA                                                      03965042
.CKDTABS AIF   ('&DATA(2)' EQ '').NCDATA                                04030042
         AIF   (&DATA(2) EQ &DT).NCDATA                                 04095042
         AGO   .CC                                                      04160042
.AA      AIF   ('&DATA(2)' EQ '').BB                                    04225042
         AIF   (&DATA(2) EQ &DT).BB                                     04290042
.CC      ANOP                                                           04355042
&DT      SETA  &DATA(2)                                                 04420042
.BB      DC    XL2'FFFE'                                                04485042
         DC    FL1'&DB'                                                 04550042
         DC    FL1'&DT'                                                 04615042
&NRENTS  SETA  &NRENTS+1                                                04680042
.NCDATA  ANOP                                                           04745042
         AIF   ('&LABEL(1)' EQ '').CKLTABS                              04810042
         AIF   ('&LABEL'(1,1) NE '(').SLABEL                            04875042
         AIF   (&LABEL(1) EQ &LB).CKLTABS                               04940042
&LB      SETA  &LABEL(1)                                                05005042
         AGO   .AAA                                                     05070042
.CKLTABS AIF   ('&LABEL(2)' EQ '').NCLABEL                              05135042
         AIF   (&LABEL(2) EQ &LT).NCLABEL                               05200042
         AGO   .CCC                                                     05265042
.AAA     AIF   ('&LABEL(2)' EQ '').BBB                                  05330042
         AIF   (&LABEL(2) EQ &LT).BBB                                   05395042
.CCC     ANOP                                                           05460042
&LT      SETA  &LABEL(2)                                                05525042
.BBB     DC    XL2'FFFF'                                                05590042
         DC    FL1'&LB'                                                 05655042
         DC    FL1'&LT'                                                 05720042
&NRENTS  SETA  &NRENTS+1                                                05785042
.NCLABEL ANOP                                                           05850042
         AIF   ('&SKIP' EQ 'E').EJECT                                   05915042
         AIF   ('&SKIP' EQ '').TESTOFF                                  05980042
.CONT    ANOP                                                           06045042
         AIF   (&TEST EQ 0).AB                                          06110042
         AIF   (&SKIP EQ &LASTCC).TESTOFF                               06175042
&S       SETA  &SKIP                                                    06240042
         ORG   &CARRCON+3                                               06305042
         DC    AL.3(0),AL.2(&S),AL.3(1)                                 06370042
         ORG                                                            06435042
&LASTCC  SETA  &S                                                       06500042
.SLABEL  ANOP                                                           06565042
.TESTOFF ANOP                                                           06630042
&TEST    SETB  0                                                        06695042
         AGO   .DD                                                      06760042
.EJECT   DC    XL2'FFFB'                                                06825042
&NRENTS  SETA  &NRENTS+1                                                06890042
         DC    X'8B'              SKIP TO CHANNEL 1                     06955042
         DC    AL.3(0),AL.2(&LASTCC),AL.3(1)                            07020042
&TEST    SETB  1                                                        07085042
         AGO   .DD                                                      07150042
.AB      AIF   (&SKIP EQ &LASTCC).NOCHANG                               07215042
A&SYSNDX DC    XL2'FFFB'                                                07280042
         DC    AL.3(0),AL.2(&SKIP),AL.3(1)                              07345042
         DC    AL.3(0),AL.2(&SKIP),AL.3(1)                              07410042
&LASTCC  SETA  &SKIP                                                    07475042
&TEST    SETB  1                                                        07540042
&CARRCON SETC  'A&SYSNDX'                                               07605042
&NRENTS  SETA  &NRENTS+1                                                07670042
.DD      ANOP                                                           07735042
.NOCHANG ANOP                                                           07800042
         MEND                                                           07865042
         EJECT                                                          07930042
         SPACE 2                                                        07995042
*  ROUTINE MACRO     ROUTINE MACRO     ROUTINE MACRO     ROUTINE MACRO* 08060042
         MACRO                                                          08125042
&NAME    ROUTINE &LOGITEM,&RNAME                                        08190042
         GBLC  &DSECT,&CSECT                                            08255042
         GBLC  &ITEM(1000)                                              08320042
         GBLA  &SHIFT(1000),&ITEMNBR                                    08385042
         GBLA  &NRENTS                                                  08450042
         LCLA  &ISHIFT,&NDX                                             08515042
.LOOP    ANOP                                                           08580042
&NDX     SETA  &NDX+1                                                   08645042
         AIF   ('&ITEM(&NDX)' EQ '&LOGITEM').FOUND                      08710042
         AIF   (&NDX LT &ITEMNBR).LOOP                                  08775042
         MNOTE *,'LOG ITEM NOT DEFINED'                                 08840042
         MEXIT                                                          08905042
.FOUND   ANOP                                                           08970042
&ISHIFT  SETA  &SHIFT(&NDX)                                             09035042
&NAME    DC    AL.12(&LOGITEM-&DSECT),XL.4'D'                           09100042
         DC    AL.4(&ISHIFT),AL.12(&RNAME-&CSECT)                       09165042
&NRENTS  SETA  &NRENTS+1                                                09230042
         MEND                                                           09295042
*  DSGEN MACRO     DSGEN MACRO     DSGEN MACRO     DSGEN MACRO        * 09360042
         SPACE 2                                                        09425042
         MACRO                                                          09490042
&NAME    DSGEN &X1,&X2,&X3,&X4,&X5,&X6,&X7,&X8,&X9,&X10,&X11,&X12,&X13,X09555042
               &X14,&X15,&X16,&X17,&X18,&X19,&X20,&X21,&X22,&X23,&X24, X09620042
               &X25,&X26,&X27,&X28,&X29,&X30,&X31,&X32                  09685042
.*                            THIS MACRO GENERATES ONE DSECT WORD       09750042
.*                                 FORMATTED FOR THE SUBJECT LOG RECORD 09815042
.*                                 EACH OPERAND HAS TWO SUB LISTS. THE  09880042
.*                                 FIRST IS THE NAME OF THE LOG ITEM    09945042
.*                                 WHILE THE SECOND IS THE # OF BITS TO 10010042
.*                                 ALLOCATE FOR THIS ITEM. ITEMS MUST   10075042
.*                                 BE DEFINED CONTIGUOUSLY WITHOUT GAPS 10140042
.*                                 UNUSED BIT GROUPS MUST BE GIVEN      10205042
.*                                 DUMMY NAMES. THE NAMES PROVIDED FOR  10270042
.*                                 THE LOG ITEMS MAY THEN BE USED IN    10335042
.*                                 THE CONVERSION MACRO INSTRUCTIONS.   10400042
         GBLC &ITEM(1000)                                               10465042
         GBLA &ITEMNBR,&BITS(1000),&SHIFT(1000)                         10530042
         LCLC  &SYMBOL                                                  10595042
         LCLA  &OP,&COUNT,&BYTE                                         10660042
.LOOP    ANOP                                                           10725042
&OP      SETA  &OP+1                                                    10790042
&ITEMNBR SETA  &ITEMNBR+1                                               10855042
&SYMBOL  SETC  '&SYSLIST(&OP,1)'                                        10920042
         AIF   ('&SYSLIST(&OP,2)' NE '').OK1                            10985042
         MNOTE *,'NULL BIT COUNT FIELD'                                 11050042
         MEXIT                                                          11115042
.OK1     ANOP                                                           11180042
         AIF   ('&SYMBOL' NE '').OK                                     11245042
         MNOTE 'LOG ITEM SYMBOL NOT PROVIDED'                           11310042
         AGO   .CNT                                                     11375042
.OK      ANOP                                                           11440042
         AIF   ('&SYMBOL'(1,1) EQ '''').CNT                *TEMP*       11505042
&SYMBOL  EQU   *+&BYTE                                                  11570042
&ITEM(&ITEMNBR)  SETC '&SYSLIST(&OP,1)'                                 11635042
&BITS(&ITEMNBR) SETA &SYSLIST(&OP,2)                                    11700042
&SHIFT(&ITEMNBR) SETA &COUNT-&BYTE*8                                    11765042
.CNT     ANOP                                                           11830042
&COUNT   SETA  &COUNT+&SYSLIST(&OP,2)                                   11895042
&BYTE    SETA  &COUNT/8                                                 11960042
         AIF (&OP LT N'&SYSLIST).LOOP                                   12025042
         AIF   (&COUNT NE 32).NOT32                                     12090042
&NAME    DS    4C                                                       12155042
         MEXIT                                                          12220042
.NOT32   AIF   (&COUNT NE 64).ERR                                       12285042
&NAME    DS    8C                                                       12350042
         MEXIT                                                          12415042
.ERR     MNOTE '**BIT COUNT FIELDS DO NOT TOTAL 32 OR 64**'             12480042
         MEND                                                           12545042
         MACRO                                                          12610042
         LINEND                                                         12675042
.*                            THIS MACRO IS USED ONLY BY THE LINE       12740042
.*                                 MACRO TO SET THE NUMBER OF ENTRIES   12805042
.*                                 ASSOCIATED WITH EACH LINE.           12870042
         GBLA  &NRENTS                                                  12935042
         GBLC &NRENTSX                                                  13000042
         ORG   &NRENTSX                                                 13065042
         DC    FL1'&NRENTS'                                             13130042
         ORG                                                            13195042
&NRENTS  SETA  0                                                        13260042
B&SYSNDX EQU   *                                                        13325042
&NRENTSX SETC  'B&SYSNDX'                                               13390042
         MEND                                                           13455042
         SPACE 2                                                        13520042
         EJECT                                                          13585042
*  LABEL MACRO     LABEL MACRO     LABEL MACRO     LABEL MACRO        * 13650042
         SPACE 2                                                        13715042
         MACRO                                                          13780042
&NAME    LABEL &LABEL1,&LABEL2,&LABEL3,&LABEL4,&LABEL5,&LABEL6,        C13845042
               &LABEL7,&LABEL8                                          13910042
.*                            THIS MACRO ALLOWS UP TO ACHT LABELS TO    13975042
.*                                 BE SPECIFIED FOR A GIVEN LINE. THE   14040042
.*                                 LABELS SHOULD BE ENCLOSED IN QUOTA-  14105042
.*                                 TION MARKS. THE COLUMN AND LINE END  14170042
.*                                 CONTROLS WILL BE INSERTED BY THE     14235042
.*                                 MACRO. OMITTED OPERANDS MEAN NO      14300042
.*                                 LABEL REQUIRED FOR RESPECTIVE        14365042
.*                                 COLUMN. THIS MACRO WILL ALSO ALERT   14430042
.*                                 THE PROGRAMMER TO EXACTLY WHERE THE  14495042
.*                                 TABLE MUST BE BROKEN IF NECESSARY    14560042
.*                                 TO AVOID EXCEEDING THE MAXIMUM LIMIT 14625042
         GBLC &LABELS(2000)                                             14690042
         GBLC  &LBL(100)                                                14755042
         GBLA  &LBLCTR(100)                                             14820042
         GBLA  &LABELNR                                                 14885042
         GBLA  &NRENTS,&LPTR                                            14950042
         LCLC  &MARGIN,&TACK                                            15015042
         LCLC  &TEXT                                                    15080042
         LCLA  &OP,&K,&START,&NRCHAR,&REMAIN                            15145042
&MARGIN  SETC  '*'                                                      15210042
         AIF   ('&NAME' EQ '').LOOPOUT                                  15275042
&LPTR    SETA  &LPTR+1                                                  15340042
&LBL(&LPTR) SETC '&NAME'                                                15405042
&LBLCTR(&LPTR) SETA &LABELNR+1                                          15470042
.LOOPOUT ANOP                                                           15535042
&OP      SETA  &OP+1                                                    15600042
&K       SETA  K'&SYSLIST(&OP)                                          15665042
         AIF (&K GE 2).NORM                                             15730042
&K       SETA  2                                                        15795042
.NORM    ANOP                                                           15860042
&START   SETA  2                                                        15925042
         AIF (&OP LT N'&SYSLIST).NOTLAST                                15990042
&MARGIN  SETC  '$'                                                      16055042
.NOTLAST ANOP                                                           16120042
&NRCHAR  SETA  8                                                        16185042
&TACK    SETC  ''                                                       16250042
.LOOPIN  ANOP                                                           16315042
&REMAIN  SETA  &K-&START                                                16380042
         AIF (&REMAIN GE 8).MORE                                        16445042
&TACK    SETC  '&MARGIN'                                                16510042
&NRCHAR  SETA  &REMAIN                                                  16575042
.MORE    ANOP                                                           16640042
&TEXT    SETC  ''                                                       16705042
         AIF (&REMAIN EQ 0).ENDTEXT                                     16770042
&TEXT    SETC  '&SYSLIST(&OP)'(&START,&NRCHAR)                          16835042
.ENDTEXT ANOP                                                           16900042
&LABELNR SETA  &LABELNR+1                                               16965042
&LABELS(&LABELNR) SETC '&TEXT'.'&TACK'                                  17030042
&START   SETA  &START+8                                                 17095042
         AIF ('&TACK' EQ '').LOOPIN                                     17160042
         AIF ('&TACK' EQ '*').LOOPOUT                                   17225042
         MEND                                                           17290042
         SPACE 2                                                        17355042
         MACRO                                                          17420042
         LSTART                                                         17485042
.*                            THIS MACRO IS ISSUED WHEN THE LABEL AREA  17550042
.*                                 OF THE TABLE IS TO BEGIN.            17615042
         GBLC &LABELS(2000)                                             17680042
         GBLA  &LABELNR                                                 17745042
         GBLC  &LBL(100)                                                17810042
         GBLA  &LBLCTR(100)                                             17875042
         LCLA  &NDX,&CTR                                                17940042
         LINEND                                                         18005042
&CTR     SETA  1                                                        18070042
.LOOP    ANOP                                                           18135042
&NDX     SETA  &NDX+1                                                   18200042
         AIF   (&LBLCTR(&CTR) NE &NDX).NOLBL                            18265042
&LBL(&CTR) DC  C'&LABELS(&NDX)'                                         18330042
&CTR     SETA  &CTR+1                                                   18395042
         AGO   .LOOPCTL                                                 18460042
.NOLBL   ANOP                                                           18525042
         DC    C'&LABELS(&NDX)'                                         18590042
.LOOPCTL AIF   (&NDX LT &LABELNR).LOOP                                  18655042
         MEND                                                           18720042
         SPACE 2                                                        18785042
*  BIN MACRO     BIN MACRO     BIN MACRO     BIN MACRO     BIN MACRO  * 18850042
         SPACE 2                                                        18915042
         MACRO                                                          18980042
         BIN   &LOGITEM,&SKIP$OR                                        19045042
.*                                 &LOGITEM - NAME OF ITEM IN LOG       19110042
.*                                      RECORD DSECT                    19175042
.*                                 &SKIP$OR - NBR OF SPACES TO SKIP ON  19240042
.*                                 MULTIPLE PRINT OR NBR OF SPACES      19305042
.*                                      TO BACK UP FROM COLUMN FOR      19370042
.*                                      START OF PRINTING. THE LETTER   19435042
.*                                      B PRECEEDS THE NUMBER (B5) IF   19500042
.*                                      THE LATTER IS DESIRED. OMISSION 19565042
.*                                      OF THIS OPERAND FORCES OPTION 2 19630042
.*                                      WITH BACKUP SPACING EQUAL TO    19695042
.*                                 THE NUMBER OF BITS IN THE ITEM       19760042
.*                                 DEFINITION (VIA MACRO 'DSGEN').      19825042
.*                            A LIMIT OF 15 BITS IS IMPOSED FOR THE     19890042
.*                                 TOTAL NUMBER OF BITS TO PRINT.       19955042
         GBLC &ITEM(1000)                                               20020042
         GBLA &ITEMNBR,&BITS(1000),&SHIFT(1000),&NRENTS                 20085042
         GBLC  &DSECT                                                   20150042
         LCLB  &B                                                       20215042
         LCLA  &IBITS,&NDX,&ISHIFT,&K                                   20280042
         LCLA  &TEMP,&T                                                 20345042
         LCLC  &S                                                       20410042
.LOOP    ANOP                                                           20475042
&NDX     SETA  &NDX+1                                                   20540042
         AIF   ('&ITEM(&NDX)' EQ '&LOGITEM').FOUND                      20605042
         AIF   (&NDX LT &ITEMNBR).LOOP                                  20670042
         MNOTE *,'YOU BLEW IT'                                          20735042
         ROUTINE DUM,SKIPPER                                            20800042
         MEXIT                                                          20865042
.FOUND   ANOP                                                           20930042
&ISHIFT  SETA  &SHIFT(&NDX)                                             20995042
&IBITS   SETA  &BITS(&NDX)                                              21060042
&T       SETA  &IBITS-1                                                 21125042
&B       SETB  0                                                        21190042
         AIF   ('&SKIP$OR' EQ '').BACKUP                                21255042
&K       SETA  K'&SKIP$OR                                               21320042
&B       SETB  ('&SKIP$OR'(1,1) EQ 'B')                                 21385042
&S       SETC  '&SKIP$OR'(&B+1,&K-&B)                                   21450042
&T       SETA  &S                                                       21515042
.BACKUP  ANOP                                                           21580042
&NRENTS  SETA  &NRENTS+1                                                21645042
&TEMP    SETA  &ISHIFT                                                  21710042
A&SYSNDX DC    AL.12(&LOGITEM-&DSECT),XL.4'&TEMP'                       21775042
         AIF (&IBITS EQ 1 AND &B EQ 0).OUT                              21840042
         ORG   A&SYSNDX                                                 21905042
&B       SETB  1                                                        21970042
         DC    AL.12(&LOGITEM-&DSECT),XL.4'C'                           22035042
         DC    BL.1'&B',AL.7(&T),AL.4(&IBITS),FL.4'&ISHIFT'             22100042
.OUT     ANOP                                                           22165042
         MEND                                                           22230042
         EJECT                                                          22295042
*  HEX MACRO     HEX MACRO     HEX MACRO    HEXN MACRO     HEX MACRO  * 22360042
         SPACE 2                                                        22425042
         MACRO                                                          22490042
         HEX   &LOGITEM,&SKIP$OR,&BYTES                                 22555042
.*                            THIS MACRO FACILITATES GENERATION OF THE  22620042
.*                                 TABLE ENTRIES SPECIFYING HEX TYPE    22685042
.*                                 CONVERSIONS.                         22750042
.*                            &LOGITEM - NAME OF DATA ITEM TO BE        22815042
.*                                 CONVERTED                            22880042
.*                            &SKIP$OR - NUMBER OF SPACES TO SKIP ON    22945042
.*                                 MULTIPLE PRINT OR NBR OF SPACES TO   23010042
.*                                 BACK UP FROM COLUMN FOR START OF     23075042
.*                                 PRINTING. THE LETTER B PRECEEDS THE  23140042
.*                                 NUMBER (B8) IF THE LATTER OPTION IS  23205042
.*                                 DESIRED. OMISSION OF THIS OPERAND    23270042
.*                                 FORCES OPTION 2 WITH BACKUP SPACING  23335042
.*                                 EQUAL TO THE NUMBER OF BYTES SPECI-  23400042
.*                                 FIED BY THE NEXT OPERAND (TWICE THIS 23465042
.*                                 NUMBER IF SUFFIX IS EXPLICITLY OR    23530042
.*                                 IMPLICITLY B).                       23595042
.*                            &BYTES - NUMBER OF TOTAL INPUT BYTES TO   23660042
.*                                 PROCESS. THIS NUMBER IS SUFFIXED     23725042