         TITLE 'IFCSXXX1 - SUM TABLE - LINKNAME=IFCS2540, ALIASES=IFCS1C00080042
               442,IFCS2501,IFCS2520,IFCS2495'                          00160042
         SPACE 2                                                        00240042
*  LINE MACRO     LINE MACRO     LINE MACRO     LINE MACRO            * 00320042
         MACRO                                                          00400042
&NAME    LINE  &DATA,&LABEL,&SKIP=                                      00480042
.*                            THIS MACRO ESTABLISHES THE MARGINS OR     00560042
.*                                 COLUMN SETTINGS FOR EACH LINE. IT    00640042
.*                                 GENERATES NECESSARY CARRIAGE CONTROL 00720042
.*                                 ENTRIES. LASTLY IT DETERMINES THE    00800042
.*                                 NUMBER OF ENTRIES ASSOCIATED WITH    00880042
.*                                 THE PREVIOUS LINE AND STORES THAT #  00960042
.*                                 INTO THE APPROPRIATE BYTE.           01040042
.*                                 &DATA(1) - CHARACTER POSITION TO     01120042
.*                                 BEGIN DATA.                          01200042
.*                                                                      01280042
.*                                 &DATA(2) - # OF SPACES BETWEEN       01360042
.*                                 SUCCESSIVE DATA COLUMN STARTING      01440042
.*                                 CHARACTERS.                          01520042
.*                                                                      01600042
.*                                 &LABEL(1) - CHARACTER POSITION       01680042
.*                                 TO BEGIN LABELS.                     01760042
.*                                                                      01840042
.*                                 &LABEL(2) - # OF SPACES BETWEEN      01920042
.*                                 LINE'S LABEL STARTING CHARACTERS.    02000042
.*                                                                      02080042
.*                                 &SKIP= - # OF LINES TO ADVANCE       02160042
.*                                 CARRIAGE TO BEGIN NEXT PRINTED LINE. 02240042
.*                                                                      02320042
.*                                 NEW ENTRIES ARE GENERATED ONLY WHEN  02400042
.*                                 NECESSARY. OMISSION OF ITEMS MEANS   02480042
.*                                 THEY HAVE NOT CHANGED SINCE PREVIOUS 02560042
.*                                 SETTINGS. A LINE MACRO IS REQUIRED   02640042
.*                                 FOR EACH PRINTED LINE. IF NO SETTING 02720042
.*                                 CHANGES ARE REQUIRED ALL OPERANDS    02800042
.*                                 ARE OMITTED IN WHICH CASE ONLY THE   02880042
.*                                 # OF ENTRIES FOR THE PREVIOUS LINE   02960042
.*                                 FIRST MACRO INSTRUCTION ISSUED FOR   03040042
.*                                 THE SUBJECT LINE.                    03120042
         GBLA  &DB,&DT,&LB,&LT,&NRENTS                                  03200042
         GBLA  &LASTCC,&INITIAL                                         03280042
         GBLC  &NRENTSX                                                 03360042
         GBLC  &CARRCON                                                 03440042
         GBLB  &TEST                                                    03520042
         LCLA  &S                                                       03600042
&NAME    DS    0C                                                       03680042
         AIF   (&INITIAL EQ 0).FIRSTLN                                  03760042
         LINEND                                                         03840042
         AGO   .NTFIRST                                                 03920042
.FIRSTLN ANOP                                                           04000042
&NRENTSX SETC  'N&SYSNDX'                                               04080042
&INITIAL SETA  1                                                        04160042
&LASTCC  SETA  1                                                        04240042
N&SYSNDX EQU   *                                                        04320042
.NTFIRST ANOP                                                           04400042
         DC    AL1(0)                                                   04480042
         AIF   ('&DATA(1)' EQ '').CKDTABS                               04560042
         AIF   ('&DATA'(1,1) NE '(').SLABEL                             04640042
         AIF   (&DATA(1) EQ &DB).CKDTABS                                04720042
&DB      SETA  &DATA(1)                                                 04800042
         AGO   .AA                                                      04880042
.CKDTABS AIF   ('&DATA(2)' EQ '').NCDATA                                04960042
         AIF   (&DATA(2) EQ &DT).NCDATA                                 05040042
         AGO   .CC                                                      05120042
.AA      AIF   ('&DATA(2)' EQ '').BB                                    05200042
         AIF   (&DATA(2) EQ &DT).BB                                     05280042
.CC      ANOP                                                           05360042
&DT      SETA  &DATA(2)                                                 05440042
.BB      DC    XL2'FFFE'                                                05520042
         DC    FL1'&DB'                                                 05600042
         DC    FL1'&DT'                                                 05680042
&NRENTS  SETA  &NRENTS+1                                                05760042
.NCDATA  ANOP                                                           05840042
         AIF   ('&LABEL(1)' EQ '').CKLTABS                              05920042
         AIF   ('&LABEL'(1,1) NE '(').SLABEL                            06000042
         AIF   (&LABEL(1) EQ &LB).CKLTABS                               06080042
&LB      SETA  &LABEL(1)                                                06160042
         AGO   .AAA                                                     06240042
.CKLTABS AIF   ('&LABEL(2)' EQ '').NCLABEL                              06320042
         AIF   (&LABEL(2) EQ &LT).NCLABEL                               06400042
         AGO   .CCC                                                     06480042
.AAA     AIF   ('&LABEL(2)' EQ '').BBB                                  06560042
         AIF   (&LABEL(2) EQ &LT).BBB                                   06640042
.CCC     ANOP                                                           06720042
&LT      SETA  &LABEL(2)                                                06800042
.BBB     DC    XL2'FFFF'                                                06880042
         DC    FL1'&LB'                                                 06960042
         DC    FL1'&LT'                                                 07040042
&NRENTS  SETA  &NRENTS+1                                                07120042
.NCLABEL ANOP                                                           07200042
         AIF   ('&SKIP' EQ 'E').EJECT                                   07280042
         AIF   ('&SKIP' EQ '').TESTOFF                                  07360042
.CONT    ANOP                                                           07440042
         AIF   (&TEST EQ 0).AB                                          07520042
         AIF   (&SKIP EQ &LASTCC).TESTOFF                               07600042
&S       SETA  &SKIP                                                    07680042
         ORG   &CARRCON+3                                               07760042
         DC    AL.3(0),AL.2(&S),AL.3(1)                                 07840042
         ORG                                                            07920042
&LASTCC  SETA  &S                                                       08000042
.SLABEL  ANOP                                                           08080042
.TESTOFF ANOP                                                           08160042
&TEST    SETB  0                                                        08240042
         AGO   .DD                                                      08320042
.EJECT   DC    XL2'FFFB'                                                08400042
&NRENTS  SETA  &NRENTS+1                                                08480042
         DC    X'8B'              SKIP TO CHANNEL 1                     08560042
         DC    AL.3(0),AL.2(&LASTCC),AL.3(1)                            08640042
&TEST    SETB  1                                                        08720042
         AGO   .DD                                                      08800042
.AB      AIF   (&SKIP EQ &LASTCC).NOCHANG                               08880042
A&SYSNDX DC    XL2'FFFB'                                                08960042
         DC    AL.3(0),AL.2(&SKIP),AL.3(1)                              09040042
         DC    AL.3(0),AL.2(&SKIP),AL.3(1)                              09120042
&LASTCC  SETA  &SKIP                                                    09200042
&TEST    SETB  1                                                        09280042
&CARRCON SETC  'A&SYSNDX'                                               09360042
&NRENTS  SETA  &NRENTS+1                                                09440042
.DD      ANOP                                                           09520042
.NOCHANG ANOP                                                           09600042
         MEND                                                           09680042
         EJECT                                                          09760042
         SPACE 2                                                        09840042
*  ROUTINE MACRO     ROUTINE MACRO     ROUTINE MACRO     ROUTINE MACRO* 09920042
         MACRO                                                          10000042
&NAME    ROUTINE &LOGITEM,&RNAME                                        10080042
         GBLC  &DSECT,&CSECT                                            10160042
         GBLC  &ITEM(1000)                                              10240042
         GBLA  &SHIFT(1000),&ITEMNBR                                    10320042
         GBLA  &NRENTS                                                  10400042
         LCLA  &ISHIFT,&NDX                                             10480042
.LOOP    ANOP                                                           10560042
&NDX     SETA  &NDX+1                                                   10640042
         AIF   ('&ITEM(&NDX)' EQ '&LOGITEM').FOUND                      10720042
         AIF   (&NDX LT &ITEMNBR).LOOP                                  10800042
         MNOTE *,'LOG ITEM NOT DEFINED'                                 10880042
         MEXIT                                                          10960042
.FOUND   ANOP                                                           11040042
&ISHIFT  SETA  &SHIFT(&NDX)                                             11120042
&NAME    DC    AL.12(&LOGITEM-&DSECT),XL.4'D'                           11200042
         DC    AL.4(&ISHIFT),AL.12(&RNAME-&CSECT)                       11280042
&NRENTS  SETA  &NRENTS+1                                                11360042
         MEND                                                           11440042
*  DSGEN MACRO     DSGEN MACRO     DSGEN MACRO     DSGEN MACRO        * 11520042
         SPACE 2                                                        11600042
         MACRO                                                          11680042
&NAME    DSGEN &X1,&X2,&X3,&X4,&X5,&X6,&X7,&X8,&X9,&X10,&X11,&X12,&X13,X11760042
               &X14,&X15,&X16,&X17,&X18,&X19,&X20,&X21,&X22,&X23,&X24, X11840042
               &X25,&X26,&X27,&X28,&X29,&X30,&X31,&X32                  11920042
.*                            THIS MACRO GENERATES ONE DSECT WORD       12000042
.*                                 FORMATTED FOR THE SUBJECT LOG RECORD 12080042
.*                                 EACH OPERAND HAS TWO SUB LISTS. THE  12160042
.*                                 FIRST IS THE NAME OF THE LOG ITEM    12240042
.*                                 WHILE THE SECOND IS THE # OF BITS TO 12320042
.*                                 ALLOCATE FOR THIS ITEM. ITEMS MUST   12400042
.*                                 BE DEFINED CONTIGUOUSLY WITHOUT GAPS 12480042
.*                                 UNUSED BIT GROUPS MUST BE GIVEN      12560042
.*                                 DUMMY NAMES. THE NAMES PROVIDED FOR  12640042
.*                                 THE LOG ITEMS MAY THEN BE USED IN    12720042
.*                                 THE CONVERSION MACRO INSTRUCTIONS.   12800042
         GBLC &ITEM(1000)                                               12880042
         GBLA &ITEMNBR,&BITS(1000),&SHIFT(1000)                         12960042
         LCLC  &SYMBOL                                                  13040042
         LCLA  &OP,&COUNT,&BYTE                                         13120042
.LOOP    ANOP                                                           13200042
&OP      SETA  &OP+1                                                    13280042
&ITEMNBR SETA  &ITEMNBR+1                                               13360042
&SYMBOL  SETC  '&SYSLIST(&OP,1)'                                        13440042
         AIF   ('&SYSLIST(&OP,2)' NE '').OK1                            13520042
         MNOTE *,'NULL BIT COUNT FIELD'                                 13600042
         MEXIT                                                          13680042
.OK1     ANOP                                                           13760042
         AIF   ('&SYMBOL' NE '').OK                                     13840042
         MNOTE 'LOG ITEM SYMBOL NOT PROVIDED'                           13920042
         AGO   .CNT                                                     14000042
.OK      ANOP                                                           14080042
         AIF   ('&SYMBOL'(1,1) EQ '''').CNT                *TEMP*       14160042
&SYMBOL  EQU   *+&BYTE                                                  14240042
&ITEM(&ITEMNBR)  SETC '&SYSLIST(&OP,1)'                                 14320042
&BITS(&ITEMNBR) SETA &SYSLIST(&OP,2)                                    14400042
&SHIFT(&ITEMNBR) SETA &COUNT-&BYTE*8                                    14480042
.CNT     ANOP                                                           14560042
&COUNT   SETA  &COUNT+&SYSLIST(&OP,2)                                   14640042
&BYTE    SETA  &COUNT/8                                                 14720042
         AIF (&OP LT N'&SYSLIST).LOOP                                   14800042
         AIF   (&COUNT NE 32).NOT32                                     14880042
&NAME    DS    4C                                                       14960042
         MEXIT                                                          15040042
.NOT32   AIF   (&COUNT NE 64).ERR                                       15120042
&NAME    DS    8C                                                       15200042
         MEXIT                                                          15280042
.ERR     MNOTE '**BIT COUNT FIELDS DO NOT TOTAL 32 OR 64**'             15360042
         MEND                                                           15440042
         MACRO                                                          15520042
         LINEND                                                         15600042
.*                            THIS MACRO IS USED ONLY BY THE LINE       15680042
.*                                 MACRO TO SET THE NUMBER OF ENTRIES   15760042
.*                                 ASSOCIATED WITH EACH LINE.           15840042
         GBLA  &NRENTS                                                  15920042
         GBLC &NRENTSX                                                  16000042
         ORG   &NRENTSX                                                 16080042
         DC    FL1'&NRENTS'                                             16160042
         ORG                                                            16240042
&NRENTS  SETA  0                                                        16320042
B&SYSNDX EQU   *                                                        16400042
&NRENTSX SETC  'B&SYSNDX'                                               16480042
         MEND                                                           16560042
         SPACE 2                                                        16640042
         EJECT                                                          16720042
*  LABEL MACRO     LABEL MACRO     LABEL MACRO     LABEL MACRO        * 16800042
         SPACE 2                                                        16880042
         MACRO                                                          16960042
&NAME    LABEL &LABEL1,&LABEL2,&LABEL3,&LABEL4,&LABEL5,&LABEL6,        C17040042
               &LABEL7,&LABEL8                                          17120042
.*                            THIS MACRO ALLOWS UP TO ACHT LABELS TO    17200042
.*                                 BE SPECIFIED FOR A GIVEN LINE. THE   17280042
.*                                 LABELS SHOULD BE ENCLOSED IN QUOTA-  17360042
.*                                 TION MARKS. THE COLUMN AND LINE END  17440042
.*                                 CONTROLS WILL BE INSERTED BY THE     17520042
.*                                 MACRO. OMITTED OPERANDS MEAN NO      17600042
.*                                 LABEL REQUIRED FOR RESPECTIVE        17680042
.*                                 COLUMN. THIS MACRO WILL ALSO ALERT   17760042
.*                                 THE PROGRAMMER TO EXACTLY WHERE THE  17840042
.*                                 TABLE MUST BE BROKEN IF NECESSARY    17920042
.*                                 TO AVOID EXCEEDING THE MAXIMUM LIMIT 18000042
         GBLC &LABELS(2000)                                             18080042
         GBLC  &LBL(100)                                                18160042
         GBLA  &LBLCTR(100)                                             18240042
         GBLA  &LABELNR                                                 18320042
         GBLA  &NRENTS,&LPTR                                            18400042
         LCLC  &MARGIN,&TACK                                            18480042
         LCLC  &TEXT                                                    18560042
         LCLA  &OP,&K,&START,&NRCHAR,&REMAIN                            18640042
&MARGIN  SETC  '*'                                                      18720042
         AIF   ('&NAME' EQ '').LOOPOUT                                  18800042
&LPTR    SETA  &LPTR+1                                                  18880042
&LBL(&LPTR) SETC '&NAME'                                                18960042
&LBLCTR(&LPTR) SETA &LABELNR+1                                          19040042
.LOOPOUT ANOP                                                           19120042
&OP      SETA  &OP+1                                                    19200042
&K       SETA  K'&SYSLIST(&OP)                                          19280042
         AIF (&K GE 2).NORM                                             19360042
&K       SETA  2                                                        19440042
.NORM    ANOP                                                           19520042
&START   SETA  2                                                        19600042
         AIF (&OP LT N'&SYSLIST).NOTLAST                                19680042
&MARGIN  SETC  '$'                                                      19760042
.NOTLAST ANOP                                                           19840042
&NRCHAR  SETA  8                                                        19920042
&TACK    SETC  ''                                                       20000042
.LOOPIN  ANOP                                                           20080042
&REMAIN  SETA  &K-&START                                                20160042
         AIF (&REMAIN GE 8).MORE                                        20240042
&TACK    SETC  '&MARGIN'                                                20320042
&NRCHAR  SETA  &REMAIN                                                  20400042
.MORE    ANOP                                                           20480042
&TEXT    SETC  ''                                                       20560042
         AIF (&REMAIN EQ 0).ENDTEXT                                     20640042
&TEXT    SETC  '&SYSLIST(&OP)'(&START,&NRCHAR)                          20720042
.ENDTEXT ANOP                                                           20800042
&LABELNR SETA  &LABELNR+1                                               20880042
&LABELS(&LABELNR) SETC '&TEXT'.'&TACK'                                  20960042
&START   SETA  &START+8                                                 21040042
         AIF ('&TACK' EQ '').LOOPIN                                     21120042
         AIF ('&TACK' EQ '*').LOOPOUT                                   21200042
         MEND                                                           21280042
         SPACE 2                                                        21360042
         MACRO                                                          21440042
         LSTART                                                         21520042
.*                            THIS MACRO IS ISSUED WHEN THE LABEL AREA  21600042
.*                                 OF THE TABLE IS TO BEGIN.            21680042
         GBLC &LABELS(2000)                                             21760042
         GBLA  &LABELNR                                                 21840042
         GBLC  &LBL(100)                                                21920042
         GBLA  &LBLCTR(100)                                             22000042
         LCLA  &NDX,&CTR                                                22080042
         LINEND                                                         22160042
&CTR     SETA  1                                                        22240042
.LOOP    ANOP                                                           22320042
&NDX     SETA  &NDX+1                                                   22400042
         AIF   (&LBLCTR(&CTR) NE &NDX).NOLBL                            22480042
&LBL(&CTR) DC  C'&LABELS(&NDX)'                                         22560042
&CTR     SETA  &CTR+1                                                   22640042
         AGO   .LOOPCTL                                                 22720042
.NOLBL   ANOP                                                           22800042
         DC    C'&LABELS(&NDX)'                                         22880042
.LOOPCTL AIF   (&NDX LT &LABELNR).LOOP                                  22960042
         MEND                                                           23040042
         SPACE 2                                                        23120042
*  BIN MACRO     BIN MACRO     BIN MACRO     BIN MACRO     BIN MACRO  * 23200042
         SPACE 2                                                        23280042
         MACRO                                                          23360042
         BIN   &LOGITEM,&SKIP$OR                                        23440042
.*                                 &LOGITEM - NAME OF ITEM IN LOG       23520042
.*                                      RECORD DSECT                    23600042
.*                                 &SKIP$OR - NBR OF SPACES TO SKIP ON  23680042
.*                                 MULTIPLE PRINT OR NBR OF SPACES      23760042
.*                                      TO BACK UP FROM COLUMN FOR      23840042
.*                                      START OF PRINTING. THE LETTER   23920042
.*                                      B PRECEEDS THE NUMBER (B5) IF   24000042
.*                                      THE LATTER IS DESIRED. OMISSION 24080042
.*                                      OF THIS OPERAND FORCES OPTION 2 24160042
.*                                      WITH BACKUP SPACING EQUAL TO    24240042
.*                                 THE NUMBER OF BITS IN THE ITEM       24320042
.*                                 DEFINITION (VIA MACRO 'DSGEN').      24400042
.*                            A LIMIT OF 15 BITS IS IMPOSED FOR THE     24480042
.*                                 TOTAL NUMBER OF BITS TO PRINT.       24560042
         GBLC &ITEM(1000)                                               24640042
         GBLA &ITEMNBR,&BITS(1000),&SHIFT(1000),&NRENTS                 24720042
         GBLC  &DSECT                                                   24800042
         LCLB  &B                                                       24880042
         LCLA  &IBITS,&NDX,&ISHIFT,&K                                   24960042
         LCLA  &TEMP,&T                                                 25040042
         LCLC  &S                                                       25120042
.LOOP    ANOP                                                           25200042
&NDX     SETA  &NDX+1                                                   25280042
         AIF   ('&ITEM(&NDX)' EQ '&LOGITEM').FOUND                      25360042
         AIF   (&NDX LT &ITEMNBR).LOOP                                  25440042
         MNOTE *,'YOU BLEW IT'                                          25520042
         ROUTINE DUM,SKIPPER                                            25600042
         MEXIT                                                          25680042
.FOUND   ANOP                                                           25760042
&ISHIFT  SETA  &SHIFT(&NDX)                                             25840042
&IBITS   SETA  &BITS(&NDX)                                              25920042
&T       SETA  &IBITS-1                                                 26000042
&B       SETB  0                                                        26080042
         AIF   ('&SKIP$OR' EQ '').BACKUP                                26160042
&K       SETA  K'&SKIP$OR                                               26240042
&B       SETB  ('&SKIP$OR'(1,1) EQ 'B')                                 26320042
&S       SETC  '&SKIP$OR'(&B+1,&K-&B)                                   26400042
&T       SETA  &S                                                       26480042
.BACKUP  ANOP                                                           26560042
&NRENTS  SETA  &NRENTS+1                                                26640042
&TEMP    SETA  &ISHIFT                                                  26720042
A&SYSNDX DC    AL.12(&LOGITEM-&DSECT),XL.4'&TEMP'                       26800042
         AIF (&IBITS EQ 1 AND &B EQ 0).OUT                              26880042
         ORG   A&SYSNDX                                                 26960042
&B       SETB  1                                                        27040042
         DC    AL.12(&LOGITEM-&DSECT),XL.4'C'                           27120042
         DC    BL.1'&B',AL.7(&T),AL.4(&IBITS),FL.4'&ISHIFT'             27200042
.OUT     ANOP                                                           27280042
         MEND                                                           27360042
         EJECT                                                          27440042
*  HEX MACRO     HEX MACRO     HEX MACRO    HEXN MACRO     HEX MACRO  * 27520042
         SPACE 2                                                        27600042
         MACRO                                                          27680042
         HEX   &LOGITEM,&SKIP$OR,&BYTES                                 27760042
.*                            THIS MACRO FACILITATES GENERATION OF THE  27840042
.*                                 TABLE ENTRIES SPECIFYING HEX TYPE    27920042
.*                                 CONVERSIONS.                         28000042
.*                            &LOGITEM - NAME OF DATA ITEM TO BE        28080042
.*                                 CONVERTED                            28160042
.*                            &SKIP$OR - NUMBER OF SPACES TO SKIP ON    28240042
.*                                 MULTIPLE PRINT OR NBR OF SPACES TO   28320042
.*                                 BACK UP FROM COLUMN FOR START OF     28400042
.*                                 PRINTING. THE LETTER B PRECEEDS THE  28480042
.*                                 NUMBER (B8) IF THE LATTER OPTION IS  28560042
.*                                 DESIRED. OMISSION OF THIS OPERAND    28640042
.*                                 FORCES OPTION 2 WITH BACKUP SPACING  28720042
.*                                 EQUAL TO THE NUMBER OF BYTES SPECI-  28800042
.*                                 FIED BY THE NEXT OPERAND (TWICE THIS 28880042
.*                                 NUMBER IF SUFFIX IS EXPLICITLY OR    28960042
.*                                 IMPLICITLY B).                       29040042
.*                            &BYTES - NUMBER OF TOTAL INPUT BYTES TO   29120042
.*                                 PROCESS. THIS NUMBER IS SUFFIXED     29200042