         TITLE 'IFCS0145 MODEL  145 MACHINE CHECK SUMMARY'              00090002
*                                                                       00180002
*                                                                       00270002
*  LINE MACRO     LINE MACRO     LINE MACRO     LINE MACRO            * 00360004
         MACRO                                                          00430004
&NAME    LINE  &DATA,&LABEL,&SKIP=                                      00500004
.*                            THIS MACRO ESTABLISHES THE MARGINS OR     00570004
.*                                 COLUMN SETTINGS FOR EACH LINE. IT    00640004
.*                                 GENERATES NECESSARY CARRIAGE CONTROL 00710004
.*                                 ENTRIES. LASTLY IT DETERMINES THE    00780004
.*                                 NUMBER OF ENTRIES ASSOCIATED WITH    00850004
.*                                 THE PREVIOUS LINE AND STORES THAT #  00920004
.*                                 INTO THE APPROPRIATE BYTE.           00990004
.*                                 &DATA(1) - CHARACTER POSITION TO     01060004
.*                                 BEGIN DATA.                          01130004
.*                                                                      01200004
.*                                 &DATA(2) - # OF SPACES BETWEEN       01270004
.*                                 SUCCESSIVE DATA COLUMN STARTING      01340004
.*                                 CHARACTERS.                          01410004
.*                                                                      01480004
.*                                 &LABEL(1) - CHARACTER POSITION       01550004
.*                                 TO BEGIN LABELS.                     01620004
.*                                                                      01690004
.*                                 &LABEL(2) - # OF SPACES BETWEEN      01760004
.*                                 LINE'S LABEL STARTING CHARACTERS.    01830004
.*                                                                      01900004
.*                                 &SKIP= - # OF LINES TO ADVANCE       01970004
.*                                 CARRIAGE TO BEGIN NEXT PRINTED LINE. 02040004
.*                                                                      02110004
.*                                 NEW ENTRIES ARE GENERATED ONLY WHEN  02180004
.*                                 NECESSARY. OMISSION OF ITEMS MEANS   02250004
.*                                 THEY HAVE NOT CHANGED SINCE PREVIOUS 02320004
.*                                 SETTINGS. A LINE MACRO IS REQUIRED   02390004
.*                                 FOR EACH PRINTED LINE. IF NO SETTING 02460004
.*                                 CHANGES ARE REQUIRED ALL OPERANDS    02530004
.*                                 ARE OMITTED IN WHICH CASE ONLY THE   02600004
.*                                 # OF ENTRIES FOR THE PREVIOUS LINE   02670004
.*                                 FIRST MACRO INSTRUCTION ISSUED FOR   02740004
.*                                 THE SUBJECT LINE.                    02810004
         GBLA  &DB,&DT,&LB,&LT,&NRENTS                                  02880004
         GBLA  &LASTCC,&INITIAL                                         02950004
         GBLC  &NRENTSX                                                 03020004
         GBLC  &CARRCON                                                 03090004
         GBLB  &TEST                                                    03160004
         LCLA  &S                                                       03230004
&NAME    DS    0C                                                       03300004
         AIF   (&INITIAL EQ 0).FIRSTLN                                  03370004
         LINEND                                                         03440004
         AGO   .NTFIRST                                                 03510004
.FIRSTLN ANOP                                                           03580004
&NRENTSX SETC  'N&SYSNDX'                                               03650004
&INITIAL SETA  1                                                        03720004
&LASTCC  SETA  1                                                        03790004
N&SYSNDX EQU   *                                                        03860004
.NTFIRST ANOP                                                           03930004
         DC    AL1(0)                                                   04000004
         AIF   ('&DATA(1)' EQ '').CKDTABS                               04070004
         AIF   ('&DATA'(1,1) NE '(').SLABEL                             04140004
         AIF   (&DATA(1) EQ &DB).CKDTABS                                04210004
&DB      SETA  &DATA(1)                                                 04280004
         AGO   .AA                                                      04350004
.CKDTABS AIF   ('&DATA(2)' EQ '').NCDATA                                04420004
         AIF   (&DATA(2) EQ &DT).NCDATA                                 04490004
         AGO   .CC                                                      04560004
.AA      AIF   ('&DATA(2)' EQ '').BB                                    04630004
         AIF   (&DATA(2) EQ &DT).BB                                     04700004
.CC      ANOP                                                           04770004
&DT      SETA  &DATA(2)                                                 04840004
.BB      DC    XL2'FFFE'                                                04910004
         DC    FL1'&DB'                                                 04980004
         DC    FL1'&DT'                                                 05050004
&NRENTS  SETA  &NRENTS+1                                                05120004
.NCDATA  ANOP                                                           05190004
         AIF   ('&LABEL(1)' EQ '').CKLTABS                              05260004
         AIF   ('&LABEL'(1,1) NE '(').SLABEL                            05330004
         AIF   (&LABEL(1) EQ &LB).CKLTABS                               05400004
&LB      SETA  &LABEL(1)                                                05470004
         AGO   .AAA                                                     05540004
.CKLTABS AIF   ('&LABEL(2)' EQ '').NCLABEL                              05610004
         AIF   (&LABEL(2) EQ &LT).NCLABEL                               05680004
         AGO   .CCC                                                     05750004
.AAA     AIF   ('&LABEL(2)' EQ '').BBB                                  05820004
         AIF   (&LABEL(2) EQ &LT).BBB                                   05890004
.CCC     ANOP                                                           05960004
&LT      SETA  &LABEL(2)                                                06030004
.BBB     DC    XL2'FFFF'                                                06100004
         DC    FL1'&LB'                                                 06170004
         DC    FL1'&LT'                                                 06240004
&NRENTS  SETA  &NRENTS+1                                                06310004
.NCLABEL ANOP                                                           06380004
         AIF   ('&SKIP' EQ 'E').EJECT                                   06450004
         AIF   ('&SKIP' EQ '').TESTOFF                                  06520004
.CONT    ANOP                                                           06590004
         AIF   (&TEST EQ 0).AB                                          06660004
         AIF   (&SKIP EQ &LASTCC).TESTOFF                               06730004
&S       SETA  &SKIP                                                    06800004
         ORG   &CARRCON+3                                               06870004
         DC    AL.3(0),AL.2(&S),AL.3(1)                                 06940004
         ORG                                                            07010004
&LASTCC  SETA  &S                                                       07080004
.SLABEL  ANOP                                                           07150004
.TESTOFF ANOP                                                           07220004
&TEST    SETB  0                                                        07290004
         AGO   .DD                                                      07360004
.EJECT   DC    XL2'FFFB'                                                07430004
&NRENTS  SETA  &NRENTS+1                                                07500004
         DC    X'8B'              SKIP TO CHANNEL 1                     07570004
         DC    AL.3(0),AL.2(&LASTCC),AL.3(1)                            07640004
&TEST    SETB  1                                                        07710004
         AGO   .DD                                                      07780004
.AB      AIF   (&SKIP EQ &LASTCC).NOCHANG                               07850004
A&SYSNDX DC    XL2'FFFB'                                                07920004
         DC    AL.3(0),AL.2(&SKIP),AL.3(1)                              07990004
         DC    AL.3(0),AL.2(&SKIP),AL.3(1)                              08060004
&LASTCC  SETA  &SKIP                                                    08130004
&TEST    SETB  1                                                        08200004
&CARRCON SETC  'A&SYSNDX'                                               08270004
&NRENTS  SETA  &NRENTS+1                                                08340004
.DD      ANOP                                                           08410004
.NOCHANG ANOP                                                           08480004
         MEND                                                           08550004
         EJECT                                                          08620004
         SPACE 2                                                        08690004
*  ROUTINE MACRO     ROUTINE MACRO     ROUTINE MACRO     ROUTINE MACRO* 08760004
         MACRO                                                          08830004
&NAME    ROUTINE &LOGITEM,&RNAME                                        08900004
         GBLC  &DSECT,&CSECT                                            08970004
         GBLC  &ITEM(1000)                                              09040004
         GBLA  &SHIFT(1000),&ITEMNBR                                    09110004
         GBLA  &NRENTS                                                  09180004
         LCLA  &ISHIFT,&NDX                                             09250004
.LOOP    ANOP                                                           09320004
&NDX     SETA  &NDX+1                                                   09390004
         AIF   ('&ITEM(&NDX)' EQ '&LOGITEM').FOUND                      09460004
         AIF   (&NDX LT &ITEMNBR).LOOP                                  09530004
         MNOTE *,'LOG ITEM NOT DEFINED'                                 09600004
         MEXIT                                                          09670004
.FOUND   ANOP                                                           09740004
&ISHIFT  SETA  &SHIFT(&NDX)                                             09810004
&NAME    DC    AL.12(&LOGITEM-&DSECT),XL.4'D'                           09880004
         DC    AL.4(&ISHIFT),AL.12(&RNAME-&CSECT)                       09950004
&NRENTS  SETA  &NRENTS+1                                                10020004
         MEND                                                           10090004
*  DSGEN MACRO     DSGEN MACRO     DSGEN MACRO     DSGEN MACRO        * 10160004
         SPACE 2                                                        10230004
         MACRO                                                          10300004
&NAME    DSGEN &X1,&X2,&X3,&X4,&X5,&X6,&X7,&X8,&X9,&X10,&X11,&X12,&X13,X10370004
               &X14,&X15,&X16,&X17,&X18,&X19,&X20,&X21,&X22,&X23,&X24, X10440004
               &X25,&X26,&X27,&X28,&X29,&X30,&X31,&X32                  10510004
.*                            THIS MACRO GENERATES ONE DSECT WORD       10580004
.*                                 FORMATTED FOR THE SUBJECT LOG RECORD 10650004
.*                                 EACH OPERAND HAS TWO SUB LISTS. THE  10720004
.*                                 FIRST IS THE NAME OF THE LOG ITEM    10790004
.*                                 WHILE THE SECOND IS THE # OF BITS TO 10860004
.*                                 ALLOCATE FOR THIS ITEM. ITEMS MUST   10930004
.*                                 BE DEFINED CONTIGUOUSLY WITHOUT GAPS 11000004
.*                                 UNUSED BIT GROUPS MUST BE GIVEN      11070004
.*                                 DUMMY NAMES. THE NAMES PROVIDED FOR  11140004
.*                                 THE LOG ITEMS MAY THEN BE USED IN    11210004
.*                                 THE CONVERSION MACRO INSTRUCTIONS.   11280004
         GBLC &ITEM(1000)                                               11350004
         GBLA &ITEMNBR,&BITS(1000),&SHIFT(1000)                         11420004
         LCLC  &SYMBOL                                                  11490004
         LCLA  &OP,&COUNT,&BYTE                                         11560004
.LOOP    ANOP                                                           11630004
&OP      SETA  &OP+1                                                    11700004
&ITEMNBR SETA  &ITEMNBR+1                                               11770004
&SYMBOL  SETC  '&SYSLIST(&OP,1)'                                        11840004
         AIF   ('&SYSLIST(&OP,2)' NE '').OK1                            11910004
         MNOTE *,'NULL BIT COUNT FIELD'                                 11980004
         MEXIT                                                          12050004
.OK1     ANOP                                                           12120004
         AIF   ('&SYMBOL' NE '').OK                                     12190004
         MNOTE 'LOG ITEM SYMBOL NOT PROVIDED'                           12260004
         AGO   .CNT                                                     12330004
.OK      ANOP                                                           12400004
         AIF   ('&SYMBOL'(1,1) EQ '''').CNT                *TEMP*       12470004
&SYMBOL  EQU   *+&BYTE                                                  12540004
&ITEM(&ITEMNBR)  SETC '&SYSLIST(&OP,1)'                                 12610004
&BITS(&ITEMNBR) SETA &SYSLIST(&OP,2)                                    12680004
&SHIFT(&ITEMNBR) SETA &COUNT-&BYTE*8                                    12750004
.CNT     ANOP                                                           12820004
&COUNT   SETA  &COUNT+&SYSLIST(&OP,2)                                   12890004
&BYTE    SETA  &COUNT/8                                                 12960004
         AIF (&OP LT N'&SYSLIST).LOOP                                   13030004
         AIF   (&COUNT NE 32).NOT32                                     13100004
&NAME    DS    4C                                                       13170004
         MEXIT                                                          13240004
.NOT32   AIF   (&COUNT NE 64).ERR                                       13310004
&NAME    DS    8C                                                       13380004
         MEXIT                                                          13450004
.ERR     MNOTE '**BIT COUNT FIELDS DO NOT TOTAL 32 OR 64**'             13520004
         MEND                                                           13590004
         MACRO                                                          13660004
         LINEND                                                         13730004
.*                            THIS MACRO IS USED ONLY BY THE LINE       13800004
.*                                 MACRO TO SET THE NUMBER OF ENTRIES   13870004
.*                                 ASSOCIATED WITH EACH LINE.           13940004
         GBLA  &NRENTS                                                  14010004
         GBLC &NRENTSX                                                  14080004
         ORG   &NRENTSX                                                 14150004
         DC    FL1'&NRENTS'                                             14220004
         ORG                                                            14290004
&NRENTS  SETA  0                                                        14360004
B&SYSNDX EQU   *                                                        14430004
&NRENTSX SETC  'B&SYSNDX'                                               14500004
         MEND                                                           14570004
         SPACE 2                                                        14640004
         EJECT                                                          14710004
*  LABEL MACRO     LABEL MACRO     LABEL MACRO     LABEL MACRO        * 14780004
         SPACE 2                                                        14850004
         MACRO                                                          14920004
&NAME    LABEL &LABEL1,&LABEL2,&LABEL3,&LABEL4,&LABEL5,&LABEL6,        C14990004
               &LABEL7,&LABEL8                                          15060004
.*                            THIS MACRO ALLOWS UP TO ACHT LABELS TO    15130004
.*                                 BE SPECIFIED FOR A GIVEN LINE. THE   15200004
.*                                 LABELS SHOULD BE ENCLOSED IN QUOTA-  15270004
.*                                 TION MARKS. THE COLUMN AND LINE END  15340004
.*                                 CONTROLS WILL BE INSERTED BY THE     15410004
.*                                 MACRO. OMITTED OPERANDS MEAN NO      15480004
.*                                 LABEL REQUIRED FOR RESPECTIVE        15550004
.*                                 COLUMN. THIS MACRO WILL ALSO ALERT   15620004
.*                                 THE PROGRAMMER TO EXACTLY WHERE THE  15690004
.*                                 TABLE MUST BE BROKEN IF NECESSARY    15760004
.*                                 TO AVOID EXCEEDING THE MAXIMUM LIMIT 15830004
         GBLC &LABELS(2000)                                             15900004
         GBLC  &LBL(100)                                                15970004
         GBLA  &LBLCTR(100)                                             16040004
         GBLA  &LABELNR                                                 16110004
         GBLA  &NRENTS,&LPTR                                            16180004
         LCLC  &MARGIN,&TACK                                            16250004
         LCLC  &TEXT                                                    16320004
         LCLA  &OP,&K,&START,&NRCHAR,&REMAIN                            16390004
&MARGIN  SETC  '*'                                                      16460004
         AIF   ('&NAME' EQ '').LOOPOUT                                  16530004
&LPTR    SETA  &LPTR+1                                                  16600004
&LBL(&LPTR) SETC '&NAME'                                                16670004
&LBLCTR(&LPTR) SETA &LABELNR+1                                          16740004
.LOOPOUT ANOP                                                           16810004
&OP      SETA  &OP+1                                                    16880004
&K       SETA  K'&SYSLIST(&OP)                                          16950004
         AIF (&K GE 2).NORM                                             17020004
&K       SETA  2                                                        17090004
.NORM    ANOP                                                           17160004
&START   SETA  2                                                        17230004
         AIF (&OP LT N'&SYSLIST).NOTLAST                                17300004
&MARGIN  SETC  '$'                                                      17370004
.NOTLAST ANOP                                                           17440004
&NRCHAR  SETA  8                                                        17510004
&TACK    SETC  ''                                                       17580004
.LOOPIN  ANOP                                                           17650004
&REMAIN  SETA  &K-&START                                                17720004
         AIF (&REMAIN GE 8).MORE                                        17790004
&TACK    SETC  '&MARGIN'                                                17860004
&NRCHAR  SETA  &REMAIN                                                  17930004
.MORE    ANOP                                                           18000004
&TEXT    SETC  ''                                                       18070004
         AIF (&REMAIN EQ 0).ENDTEXT                                     18140004
&TEXT    SETC  '&SYSLIST(&OP)'(&START,&NRCHAR)                          18210004
.ENDTEXT ANOP                                                           18280004
&LABELNR SETA  &LABELNR+1                                               18350004
&LABELS(&LABELNR) SETC '&TEXT'.'&TACK'                                  18420004
&START   SETA  &START+8                                                 18490004
         AIF ('&TACK' EQ '').LOOPIN                                     18560004
         AIF ('&TACK' EQ '*').LOOPOUT                                   18630004
         MEND                                                           18700004
         SPACE 2                                                        18770004
         MACRO                                                          18840004
         LSTART                                                         18910004
.*                            THIS MACRO IS ISSUED WHEN THE LABEL AREA  18980004
.*                                 OF THE TABLE IS TO BEGIN.            19050004
         GBLC &LABELS(2000)                                             19120004
         GBLA  &LABELNR                                                 19190004
         GBLC  &LBL(100)                                                19260004
         GBLA  &LBLCTR(100)                                             19330004
         LCLA  &NDX,&CTR                                                19400004
         LINEND                                                         19470004
&CTR     SETA  1                                                        19540004
.LOOP    ANOP                                                           19610004
&NDX     SETA  &NDX+1                                                   19680004
         AIF   (&LBLCTR(&CTR) NE &NDX).NOLBL                            19750004
&LBL(&CTR) DC  C'&LABELS(&NDX)'                                         19820004
&CTR     SETA  &CTR+1                                                   19890004
         AGO   .LOOPCTL                                                 19960004
.NOLBL   ANOP                                                           20030004
         DC    C'&LABELS(&NDX)'                                         20100004
.LOOPCTL AIF   (&NDX LT &LABELNR).LOOP                                  20170004
         MEND                                                           20240004
         SPACE 2                                                        20310004
*  BIN MACRO     BIN MACRO     BIN MACRO     BIN MACRO     BIN MACRO  * 20380004
         SPACE 2                                                        20450004
         MACRO                                                          20520004
         BIN   &LOGITEM,&SKIP$OR                                        20590004
.*                                 &LOGITEM - NAME OF ITEM IN LOG       20660004
.*                                      RECORD DSECT                    20730004
.*                                 &SKIP$OR - NBR OF SPACES TO SKIP ON  20800004
.*                                 MULTIPLE PRINT OR NBR OF SPACES      20870004
.*                                      TO BACK UP FROM COLUMN FOR      20940004
.*                                      START OF PRINTING. THE LETTER   21010004
.*                                      B PRECEEDS THE NUMBER (B5) IF   21080004
.*                                      THE LATTER IS DESIRED. OMISSION 21150004
.*                                      OF THIS OPERAND FORCES OPTION 2 21220004
.*                                      WITH BACKUP SPACING EQUAL TO    21290004
.*                                 THE NUMBER OF BITS IN THE ITEM       21360004
.*                                 DEFINITION (VIA MACRO 'DSGEN').      21430004
.*                            A LIMIT OF 15 BITS IS IMPOSED FOR THE     21500004
.*                                 TOTAL NUMBER OF BITS TO PRINT.       21570004
         GBLC &ITEM(1000)                                               21640004
         GBLA &ITEMNBR,&BITS(1000),&SHIFT(1000),&NRENTS                 21710004
         GBLC  &DSECT                                                   21780004
         LCLB  &B                                                       21850004
         LCLA  &IBITS,&NDX,&ISHIFT,&K                                   21920004
         LCLA  &TEMP,&T                                                 21990004
         LCLC  &S                                                       22060004
.LOOP    ANOP                                                           22130004
&NDX     SETA  &NDX+1                                                   22200004
         AIF   ('&ITEM(&NDX)' EQ '&LOGITEM').FOUND                      22270004
         AIF   (&NDX LT &ITEMNBR).LOOP                                  22340004
         MNOTE *,'YOU BLEW IT'                                          22410004
         ROUTINE DUM,SKIPPER                                            22480004
         MEXIT                                                          22550004
.FOUND   ANOP                                                           22620004
&ISHIFT  SETA  &SHIFT(&NDX)                                             22690004
&IBITS   SETA  &BITS(&NDX)                                              22760004
&T       SETA  &IBITS-1                                                 22830004
&B       SETB  0                                                        22900004
         AIF   ('&SKIP$OR' EQ '').BACKUP                                22970004
&K       SETA  K'&SKIP$OR                                               23040004
&B       SETB  ('&SKIP$OR'(1,1) EQ 'B')                                 23110004
&S       SETC  '&SKIP$OR'(&B+1,&K-&B)                                   23180004
&T       SETA  &S                                                       23250004
.BACKUP  ANOP                                                           23320004
&NRENTS  SETA  &NRENTS+1                                                23390004
&TEMP    SETA  &ISHIFT                                                  23460004
A&SYSNDX DC    AL.12(&LOGITEM-&DSECT),XL.4'&TEMP'                       23530004
         AIF (&IBITS EQ 1 AND &B EQ 0).OUT                              23600004
         ORG   A&SYSNDX                                                 23670004
&B       SETB  1                                                        23740004
         DC    AL.12(&LOGITEM-&DSECT),XL.4'C'                           23810004
         DC    BL.1'&B',AL.7(&T),AL.4(&IBITS),FL.4'&ISHIFT'             23880004
.OUT     ANOP                                                           23950004
         MEND                                                           24020004
         EJECT                                                          24090004
*  HEX MACRO     HEX MACRO     HEX MACRO    HEXN MACRO     HEX MACRO  * 24160004
         SPACE 2                                                        24230004
         MACRO                                                          24300004
         HEX   &LOGITEM,&SKIP$OR,&BYTES                                 24370004
.*                            THIS MACRO FACILITATES GENERATION OF THE  24440004
.*                                 TABLE ENTRIES SPECIFYING HEX TYPE    24510004
.*                                 CONVERSIONS.                         24580004
.*                            &LOGITEM - NAME OF DATA ITEM TO BE        24650004
.*                                 CONVERTED                            24720004
.*                            &SKIP$OR - NUMBER OF SPACES TO SKIP ON    24790004
.*                                 MULTIPLE PRINT OR NBR OF SPACES TO   24860004
.*                                 BACK UP FROM COLUMN FOR START OF     24930004
.*                                 PRINTING. THE LETTER B PRECEEDS THE  25000004
.*                                 NUMBER (B8) IF THE LATTER OPTION IS  25070004
.*                                 DESIRED. OMISSION OF THIS OPERAND    25140004
.*                                 FORCES OPTION 2 WITH BACKUP SPACING  25210004
.*                                 EQUAL TO THE NUMBER OF BYTES SPECI-  25280004
.*                                 FIED BY THE NEXT OPERAND (TWICE THIS 25350004
.*                                 NUMBER IF SUFFIX IS EXPLICITLY OR    25420004
.*                                 IMPLICITLY B).                       25490004
.*                            &BYTES - NUMBER OF TOTAL INPUT BYTES TO   25560004
.*                                 PROCESS. THIS NUMBER IS SUFFIXED     25630004