         TITLE 'IFCS2860 - SUM TABLE - LINKNAME=IFCS2860'               00090020
         MACRO                                                          00180020
&NAME    DSGEN &X1,&X2,&X3,&X4,&X5,&X6,&X7,&X8,&X9,&X10,&X11,&X12,&X13,X00270020
               &X14,&X15,&X16,&X17,&X18,&X19,&X20,&X21,&X22,&X23,&X24, X00360020
               &X25,&X26,&X27,&X28,&X29,&X30,&X31,&X32                  00450020
.*                            THIS MACRO GENERATES ONE DSECT WORD       00540020
.*                                 FORMATTED FOR THE SUBJECT LOG RECORD 00630020
.*                                 EACH OPERAND HAS TWO SUB LISTS. THE  00720020
.*                                 FIRST IS THE NAME OF THE LOG ITEM    00810020
.*                                 WHILE THE SECOND IS THE # OF BITS TO 00900020
.*                                 ALLOCATE FOR THIS ITEM. ITEMS MUST   00990020
.*                                 BE DEFINED CONTIGUOUSLY WITHOUT GAPS 01080020
.*                                 UNUSED BIT GROUPS MUST BE GIVEN      01170020
.*                                 DUMMY NAMES. THE NAMES PROVIDED FOR  01260020
.*                                 THE LOG ITEMS MAY THEN BE USED IN    01350020
.*                                 THE CONVERSION MACRO INSTRUCTIONS.   01440020
         GBLC &ITEM(1000)                                               01530020
         GBLA &ITEMNBR,&BITS(1000),&SHIFT(1000)                         01620020
         LCLC  &SYMBOL                                                  01710020
         LCLA  &OP,&COUNT,&BYTE                                         01800020
.LOOP    ANOP                                                           01890020
&OP      SETA  &OP+1                                                    01980020
&ITEMNBR SETA  &ITEMNBR+1                                               02070020
&SYMBOL  SETC  '&SYSLIST(&OP,1)'                                        02160020
         AIF   ('&SYSLIST(&OP,2)' NE '').OK1                            02250020
         MNOTE *,'NULL BIT COUNT FIELD'                                 02340020
         MEXIT                                                          02430020
.OK1     ANOP                                                           02520020
         AIF   ('&SYMBOL' NE '').OK                                     02610020
         MNOTE 'LOG ITEM SYMBOL NOT PROVIDED'                           02700020
         AGO   .CNT                                                     02790020
.OK      ANOP                                                           02880020
         AIF   ('&SYMBOL'(1,1) EQ '''').CNT                *TEMP*       02970020
&SYMBOL  EQU   *+&BYTE                                                  03060020
&ITEM(&ITEMNBR)  SETC '&SYSLIST(&OP,1)'                                 03150020
&BITS(&ITEMNBR) SETA &SYSLIST(&OP,2)                                    03240020
&SHIFT(&ITEMNBR) SETA &COUNT-&BYTE*8                                    03330020
.CNT     ANOP                                                           03420020
&COUNT   SETA  &COUNT+&SYSLIST(&OP,2)                                   03510020
&BYTE    SETA  &COUNT/8                                                 03600020
         AIF (&OP LT N'&SYSLIST).LOOP                                   03690020
         AIF   (&COUNT NE 32).NOT32                                     03780020
&NAME    DS    4C                                                       03870020
         MEXIT                                                          03960020
.NOT32   AIF   (&COUNT NE 64).ERR                                       04050020
&NAME    DS    8C                                                       04140020
         MEXIT                                                          04230020
.ERR     MNOTE '**BIT COUNT FIELDS DO NOT TOTAL 32 OR 64**'             04320020
         MEND                                                           04410020
         MACRO                                                          04500020
&NAME    LINE  &DATA,&LABEL,&SKIP=                                      04590020
.*                            THIS MACRO ESTABLISHES THE MARGINS OR     04680020
.*                                 COLUMN SETTINGS FOR EACH LINE. IT    04770020
.*                                 GENERATES NECESSARY CARRIAGE CONTROL 04860020
.*                                 ENTRIES. LASTLY IT DETERMINES THE    04950020
.*                                 NUMBER OF ENTRIES ASSOCIATED WITH    05040020
.*                                 THE PREVIOUS LINE AND STORES THAT #  05130020
.*                                 INTO THE APPROPRIATE BYTE.           05220020
.*                            &DATA(1) - CHARACTER POSITION TO BEGIN    05310020
.*                                 DATA.                                05400020
.*                            &DATA(2) - # OF SPACES BETWEEN SUCCESSIVE 05490020
.*                                 DATA COLUMN STARTING CHARACTERS.     05580020
.*                            &LABEL(1) - CHAR. POS. TO BEGIN LABELS.   05670020
.*                            &LABEL(2) - # SPACES BETWEEN LINE'S LABEL 05760020
.*                                 STARTING CHARACTERS.                 05850020
.*                            &SKIP= - # OF LINES TO ADVANCE CARRIAGE   05940020
.*                                 TO BEGIN NEXT PRINTED LINE.          06030020
.*                            NEW ENTRIES ARE GENERATED ONLY WHEN       06120020
.*                                 NECESSARY. OMISSION OF ITEMS MEANS   06210020
.*                                 THEY HAVE NOT CHANGED SINCE PREVIOUS 06300020
.*                                 SETTINGS. A LINE MACRO IS REQUIRED   06390020
.*                                 FOR EACH PRINTED LINE. IF NO SETTING 06480020
.*                                 CHANGES ARE REQUIRED ALL OPERANDS    06570020
.*                                 ARE OMITTED IN WHICH CASE ONLY THE   06660020
.*                                 # OF ENTRIES FOR THE PREVIOUS LINE   06750020
.*                                 IS COMPUTED. THIS MACRO MUST BE THE  06840020
.*                                 FIRST MACRO INSTRUCTION ISSUED FOR   06930020
.*                                 THE SUBJECT LINE                     07020020
         GBLA  &DB,&DT,&LB,&LT,&NRENTS                                  07110020
         GBLA  &LASTCC,&INITIAL                                         07200020
         GBLC  &NRENTSX                                                 07290020
         GBLC  &CARRCON                                                 07380020
         GBLB  &TEST                                                    07470020
         LCLA  &S                                                       07560020
&NAME    DS    0C                                                       07650020
         AIF   (&INITIAL EQ 0).FIRSTLN                                  07740020
         LINEND                                                         07830020
         AGO   .NTFIRST                                                 07920020
.FIRSTLN ANOP                                                           08010020
&NRENTSX SETC  'N&SYSNDX'                                               08100020
&INITIAL SETA  1                                                        08190020
N&SYSNDX EQU   *                                                        08280020
.NTFIRST ANOP                                                           08370020
         DC    AL1(0)                                                   08460020
         AIF   ('&DATA(1)' EQ '').CKDTABS                               08550020
         AIF   (&DATA(1) EQ &DB).CKDTABS                                08640020
&DB      SETA  &DATA(1)                                                 08730020
         AGO   .AA                                                      08820020
.CKDTABS AIF   ('&DATA(2)' EQ '').NCDATA                                08910020
         AIF   (&DATA(2) EQ &DT).NCDATA                                 09000020
         AGO   .CC                                                      09090020
.AA      AIF   ('&DATA(2)' EQ '').BB                                    09180020
         AIF   (&DATA(2) EQ &DT).BB                                     09270020
.CC      ANOP                                                           09360020
&DT      SETA  &DATA(2)                                                 09450020
.BB      DC    XL2'FFFE'                                                09540020
         DC    FL1'&DB'                                                 09630020
         DC    FL1'&DT'                                                 09720020
&NRENTS  SETA  &NRENTS+1                                                09810020
.NCDATA  ANOP                                                           09900020
         AIF   ('&LABEL(1)' EQ '').CKLTABS                              09990020
         AIF   (&LABEL(1) EQ &LB).CKLTABS                               10080020
&LB      SETA  &LABEL(1)                                                10170020
         AGO   .AAA                                                     10260020
.CKLTABS AIF   ('&LABEL(2)' EQ '').NCLABEL                              10350020
         AIF   (&LABEL(2) EQ &LT).NCLABEL                               10440020
         AGO   .CCC                                                     10530020
.AAA     AIF   ('&LABEL(2)' EQ '').BBB                                  10620020
         AIF   (&LABEL(2) EQ &LT).BBB                                   10710020
.CCC     ANOP                                                           10800020
&LT      SETA  &LABEL(2)                                                10890020
.BBB     DC    XL2'FFFF'                                                10980020
         DC    FL1'&LB'                                                 11070020
         DC    FL1'&LT'                                                 11160020
&NRENTS  SETA  &NRENTS+1                                                11250020
.NCLABEL ANOP                                                           11340020
         AIF   ('&SKIP' NE '').CONT                                     11430020
         AIF   (&TEST EQ 0).NOCHANG                                     11520020
&S       SETA  &LASTCC                                                  11610020
         AGO   .DEFAULT                                                 11700020
.CONT    ANOP                                                           11790020
         AIF   (&TEST EQ 0).AB                                          11880020
&S       SETA  &SKIP                                                    11970020
.DEFAULT ANOP                                                           12060020
         ORG   &CARRCON+3                                               12150020
         DC    AL.3(0),AL.2(&S),AL.3(1)                                 12240020
         ORG                                                            12330020
&LASTCC  SETA  &S                                                       12420020
&TEST    SETB  0                                                        12510020
         AGO   .DD                                                      12600020
.AB      AIF   (&SKIP EQ &LASTCC).NOCHANG                               12690020
A&SYSNDX DC    XL2'FFFB'                                                12780020
         DC    AL.3(0),AL.2(&SKIP),AL.3(1)                              12870020
         DC    FL1'9'                                                   12960020
&LASTCC  SETA  &SKIP                                                    13050020
&TEST    SETB  1                                                        13140020
&CARRCON SETC  'A&SYSNDX'                                               13230020
&NRENTS  SETA  &NRENTS+1                                                13320020
.DD      ANOP                                                           13410020
.NOCHANG ANOP                                                           13500020
         MEND                                                           13590020
         MACRO                                                          13680020
         BIN   &LOGITEM,&SKIP$OR                                        13770020
.*                                 &LOGITEM - NAME OF ITEM IN LOG       13860020
.*                                      RECORD DSECT                    13950020
.*                                 &SKIP$OR - NBR OF SPACES TO SKIP ON  14040020
.*                                 MULTIPLE PRINT OR NBR OF SPACES      14130020
.*                                      TO BACK UP FROM COLUMN FOR      14220020
.*                                      START OF PRINTING. THE LETTER   14310020
.*                                      B PRECEEDS THE NUMBER (B5) IF   14400020
.*                                      THE LATTER IS DESIRED. OMISSION 14490020
.*                                      OF THIS OPERAND FORCES OPTION 2 14580020
.*                                      WITH BACKUP SPACING EQUAL TO    14670020
.*                                 THE NUMBER OF BITS IN THE ITEM       14760020
.*                                 DEFINITION (VIA MACRO 'DSGEN').      14850020
.*                            A LIMIT OF 15 BITS IS IMPOSED FOR THE     14940020
.*                                 TOTAL NUMBER OF BITS TO PRINT.       15030020
         GBLC &ITEM(1000)                                               15120020
         GBLA &ITEMNBR,&BITS(1000),&SHIFT(1000),&NRENTS                 15210020
         GBLC  &DSECT                                                   15300020
         LCLB  &B                                                       15390020
         LCLA  &IBITS,&NDX,&ISHIFT,&K                                   15480020
         LCLA  &TEMP                                                    15570020
         LCLC  &S                                                       15660020
.LOOP    ANOP                                                           15750020
&NDX     SETA  &NDX+1                                                   15840020
         AIF   ('&ITEM(&NDX)' EQ '&LOGITEM').FOUND                      15930020
         AIF   (&NDX LT &ITEMNBR).LOOP                                  16020020
         MNOTE *,'YOU BLEW IT'                                          16110020
         ROUTINE DUM,SKIPPER                                            16200020
         MEXIT                                                          16290020
.FOUND   ANOP                                                           16380020
&ISHIFT  SETA  &SHIFT(&NDX)                                             16470020
&IBITS   SETA  &BITS(&NDX)                                              16560020
&S       SETC  '&IBITS'                                                 16650020
&B       SETB  1                                                        16740020
         AIF   ('&SKIP$OR' EQ '').BACKUP                                16830020
&K       SETA  K'&SKIP$OR                                               16920020
&B       SETB  ('&SKIP$OR'(1,1) EQ 'B')                                 17010020
&S       SETC  '&SKIP$OR'(&B+1,&K-&B)                                   17100020
.BACKUP  ANOP                                                           17190020
&NRENTS  SETA  &NRENTS+1                                                17280020
&TEMP    SETA  &ISHIFT+1                                                17370020
A&SYSNDX DC    AL.12(&LOGITEM-&DSECT),XL.4'&TEMP'                       17460020
         AIF (&IBITS EQ 1 AND &B EQ 0).OUT                              17550020
         ORG   A&SYSNDX                                                 17640020
         DC    AL.12(&LOGITEM-&DSECT),XL.4'C'                           17730020
         DC    BL.1'&B',AL.7(&S),AL.4(&IBITS),FL.4'&ISHIFT'             17820020
.OUT     ANOP                                                           17910020
         MEND                                                           18000020
         MACRO                                                          18090020
         HEX   &LOGITEM,&SKIP$OR,&BYTES                                 18180020
.*                            THIS MACRO FACILITATES GENERATION OF THE  18270020
.*                                 TABLE ENTRIES SPECIFYING HEX TYPE    18360020
.*                                 CONVERSIONS.                         18450020
.*                            &LOGITEM - NAME OF DATA ITEM TO BE        18540020
.*                                 CONVERTED                            18630020
.*                            &SKIP$OR - NUMBER OF SPACES TO SKIP ON    18720020
.*                                 MULTIPLE PRINT OR NBR OF SPACES TO   18810020
.*                                 BACK UP FROM COLUMN FOR START OF     18900020
.*                                 PRINTING. THE LETTER B PRECEEDS THE  18990020
.*                                 NUMBER (B8) IF THE LATTER OPTION IS  19080020
.*                                 DESIRED. OMISSION OF THIS OPERAND    19170020
.*                                 FORCES OPTION 2 WITH BACKUP SPACING  19260020
.*                                 EQUAL TO THE NUMBER OF BYTES SPECI-  19350020
.*                                 FIED BY THE NEXT OPERAND (TWICE THIS 19440020
.*                                 NUMBER IF SUFFIX IS EXPLICITLY OR    19530020
.*                                 IMPLICITLY B).                       19620020
.*                            &BYTES - NUMBER OF TOTAL INPUT BYTES TO   19710020
.*                                 PROCESS. THIS NUMBER IS SUFFIXED     19800020
.*                                 WITH AN L,R, OR B TO STIPULATE       19890020
.*                                 PRINTING OF THE LEFT HALF, RIGHT     19980020
.*                                 HALF, OR BOTH HALVES OF THE BYTE     20070020
.*                                 RESPECTIVELY. OMISSION OF THIS       20160020
.*                                 OPERAND DEFAULTS TO B WITH THE NUM-  20250020
.*                                 BER OF BYTES EQUAL TO THE ITEM LNGTH 20340020
.*                            A NEW ENTRY IS GENERATED ONLY WHEN NECES- 20430020
.*                                 SARY. THIS MACRO MUST BE THE FIRST   20520020
.*                                 MACRO INSTRUCTION ISSUED FOR THE     20610020
.*                                 SUBJECT LINE(S).                     20700020
         GBLC &ITEM(1000),&DSECT                                        20790020
         GBLA &ITEMNBR,&BITS(1000),&SHIFT(1000),&NRENTS                 20880020
         LCLB  &B                                                       20970020
         LCLA  &IBITS,&NDX,&ISHIFT,&K,&T,&CODE,&BYTESP                  21060020
         LCLC  &S,&LETTER                                               21150020
.LOOP    ANOP                                                           21240020
&NDX     SETA  &NDX+1                                                   21330020
         AIF   ('&ITEM(&NDX)' EQ '&LOGITEM').FOUND                      21420020
         AIF   (&NDX LT &ITEMNBR).LOOP                                  21510020
         MNOTE *,'LOG ITEM NOT DEFINED'                                 21600020
         MEXIT                                                          21690020
.FOUND   ANOP                                                           21780020
&ISHIFT  SETA  &SHIFT(&NDX)                                             21870020
&IBITS   SETA  &BITS(&NDX)                                              21960020
&CODE    SETA  1                                                        22050020
&K       SETA  K'&BYTES                                                 22140020
         AIF   (&IBITS-(&IBITS/4)*4 EQ 0).OK                            22230020
         MNOTE *,'BIT LENGTH SPECIFICATION INCONSISTENT WITH CONTROL'   22320020
         MEXIT                                                          22410020
.OK      AIF   ('&BYTES' EQ '').USEDEFN                                 22500020
&LETTER  SETC  '&BYTES'(&K,1)                                           22590020
&S       SETC  '&BYTES'(1,&K-1)                                         22680020
&BYTESP  SETA  &S                                                       22770020
         AIF   ('&LETTER' EQ 'B').BOTH                                  22860020
         AIF   (&ISHIFT EQ 0 OR &ISHIFT EQ 4).OK2                       22950020
.ERR     MNOTE *,'DATA NOT ALLIGNED ON HEX OR BYTE BOUNDARY'            23040020
         MEXIT                                                          23130020
.USEDEFN ANOP                                                           23220020
&BYTESP  SETA  &IBITS/8                                                 23310020
.BOTH    AIF   (&ISHIFT NE 0).ERR                                       23400020
&CODE    SETA  3                                                        23490020
&T       SETA  &BYTESP*2                                                23580020
&S       SETC  '&T'                                                     23670020
.OK2     AIF   (&ISHIFT EQ 0).L                                         23760020
&CODE    SETA  2                                                        23850020
.L       ANOP                                                           23940020
&B       SETB  1                                                        24030020
         AIF   ('&SKIP$OR' EQ '').BACKUP                                24120020
&K       SETA  K'&SKIP$OR                                               24210020
&B       SETB  ('&SKIP$OR'(1,1) EQ 'B')                                 24300020
&S       SETC  '&SKIP$OR'(&B+1,&K-&B)                                   24390020
.BACKUP  ANOP                                                           24480020
&NRENTS  SETA  &NRENTS+1                                                24570020
         DC    AL.12(&LOGITEM-&DSECT),XL.4'A'                           24660020
         DC    BL.1'&B',FL.7'&S',FL.4'&BYTESP',FL.4'&CODE'              24750020
.OUT     ANOP                                                           24840020
         MEND                                                           24930020
         MACRO                                                          25020020
&NAME    ROUTINE &LOGITEM,&RNAME                                        25110020
         GBLA  &NRENTS                                                  25200020
         GBLC  &DSECT,&CSECT                                            25290020
&NAME    DC    AL.12(&LOGITEM-&DSECT),XL.4'D'                           25380020
         DC    AL2(&RNAME-&CSECT)                                       25470020
&NRENTS  SETA  &NRENTS+1                                                25560020
         MEND                                                           25650020
         MACRO                                                          25740020
         LABEL &LABEL1,&LABEL2,&LABEL3,&LABEL4                          25830020
.*                            THIS MACRO ALLOWS UP TO FOUR LABELS TO    25920020
.*                                 BE SPECIFIED FOR A GIVEN LINE. THE   26010020
.*                                 LABELS SHOULD BE ENCLOSED IN QUOTA-  26100020
.*                                 TION MARKS. THE COLUMN AND LINE END  26190020
.*                                 CONTROLS WILL BE INSERTED BY THE     26280020
.*                                 MACRO. OMITTED OPERANDS MEAN NO      26370020
.*                                 LABEL REQUIRED FOR RESPECTIVE        26460020
.*                                 COLUMN. THIS MACRO WILL ALSO ALERT   26550020
.*                                 THE PROGRAMMER TO EXACTLY WHERE THE  26640020
.*                                 TABLE MUST BE BROKEN IF NECESSARY    26730020
.*                                 TO AVOID EXCEEDING THE MAXIMUM LIMIT 26820020
         GBLC &LABELS(1000)                                             26910020
         GBLA  &LABELNR                                                 27000020
         GBLA  &NRENTS                                                  27090020
         LCLC  &MARGIN,&TACK                                            27180020
         LCLC  &TEXT                                                    27270020
         LCLA  &OP,&K,&START,&NRCHAR,&REMAIN                            27360020
&MARGIN  SETC  '*'                                                      27450020
.LOOPOUT ANOP                                                           27540020
&OP      SETA  &OP+1                                                    27630020
&K       SETA  K'&SYSLIST(&OP)                                          27720020
         AIF (&K GE 2).NORM                                             27810020
&K       SETA  2                                                        27900020
.NORM    ANOP                                                           27990020
&START   SETA  2                                                        28080020
         AIF (&OP LT N'&SYSLIST).NOTLAST                                28170020
&MARGIN  SETC  '$'                                                      28260020
.NOTLAST ANOP                                                           28350020
&NRCHAR  SETA  8                                                        28440020
&TACK    SETC  ''                                                       28530020
.LOOPIN  ANOP                                                           28620020
&REMAIN  SETA  &K-&START                                                28710020
         AIF (&REMAIN GE 8).MORE                                        28800020
&TACK    SETC  '&MARGIN'                                                28890020
&NRCHAR  SETA  &REMAIN                                                  28980020
.MORE    ANOP                                                           29070020
&TEXT    SETC  ''                                                       29160020
         AIF (&REMAIN EQ 0).ENDTEXT                                     29250020
&TEXT    SETC  '&SYSLIST(&OP)'(&START,&NRCHAR)                          29340020
.ENDTEXT ANOP                                                           29430020
&LABELNR SETA  &LABELNR+1                                               29520020
&LABELS(&LABELNR) SETC '&TEXT'.'&TACK'                                  29610020
&START   SETA  &START+8                                                 29700020
         AIF ('&TACK' EQ '').LOOPIN                                     29790020
         AIF ('&TACK' EQ '*').LOOPOUT                                   29880020
         MEND                                                           29970020
         MACRO                                                          30060020
         LSTART                                                         30150020
.*                            THIS MACRO IS ISSUED WHEN THE LABEL AREA  30240020
.*                                 OF THE TABLE IS TO BEGIN.            30330020
         GBLC &LABELS(1000)                                             30420020
         GBLA  &LABELNR                                                 30510020
         LCLA  &NDX                                                     30600020
         LINEND                                                         30690020
.LOOP    ANOP                                                           30780020
&NDX     SETA  &NDX+1                                                   30870020
         DC    C'&LABELS(&NDX)'                                         30960020
         AIF   (&NDX LT &LABELNR).LOOP                                  31050020
         MEND                                                           31140020
         MACRO                                                          31230020
         LINEND                                                         31320020
.*                            THIS MACRO IS USED ONLY BY THE LINE       31410020
.*                                 MACRO TO SET THE NUMBER OF ENTRIES   31500020
.*                                 ASSOCIATED WITH EACH LINE.           31590020
         GBLA  &NRENTS                                                  31680020
         GBLC &NRENTSX                                                  31770020
         ORG   &NRENTSX                                                 31860020
         DC    FL1'&NRENTS'                                             31950020
         ORG                                                            32040020
&NRENTS  SETA  0                                                        32130020
B&SYSNDX EQU   *                                                        32220020
&NRENTSX SETC  'B&SYSNDX'                                               32310020
         MEND                                                           32400020
         MACRO                                                          32490020
         SUM   &LOGITEM,&MASK                                           32580020
.*                            THIS MACRO GENERATES A NORMAL EDIT ENTRY  32670020
.*                                 FOR PROCESSING BY THE SUMMARY MODULE 32760020
.*                            &LOGITEM - NAME OF DATA ITEM TO BE SUMMED 32850020