         TITLE 'IFCSVOL0  MES DATA SUMMARY BY VOLUME'                   00100002
         MACRO                                                          00200002
&NAME    DSGEN                                                          00300002
.*                            THIS MACRO GENERATES ONE DSECT WORD       00400002
.*                                 FORMATTED FOR THE SUBJECT LOG RECORD 00500002
.*                                 EACH OPERAND HAS TWO SUB LISTS. THE  00600002
.*                                 FIRST IS THE NAME OF THE LOG ITEM    00700002
.*                                 WHILE THE SECOND IS THE # OF BITS TO 00800002
.*                                 ALLOCATE FOR THIS ITEM. ITEMS MUST   00900002
.*                                 BE DEFINED CONTIGUOUSLY WITHOUT GAPS 01000002
.*                                 UNUSED BIT GROUPS MUST BE GIVEN      01100002
.*                                 DUMMY NAMES. THE NAMES PROVIDED FOR  01200002
.*                                 THE LOG ITEMS MAY THEN BE USED IN    01300002
.*                                 THE CONVERSION MACRO INSTRUCTIONS.   01400002
         GBLC &ITEM(1000)                                               01500002
         GBLA &ITEMNBR,&BITS(1000),&SHIFT(1000)                         01600002
         LCLB  &ONLY1,&CTIND                                            01700002
         LCLA  &START1,&START2,&END1,&END2                              01800002
         LCLC  &SYMBOL,&EQUSYM                                          01900002
         LCLA  &OP,&COUNT,&BYTE,&EQUCNT                                 02000002
         ACTR  100000                                                   02100002
.START   AIF   (N'&SYSLIST(&OP+1) LT 3).LOOP                            02200002
         AIF   ('&SYSLIST(&OP+1,3)' EQ 'EQU').LOOP     TEST FOR EQU     02300002
  AIF   ('&SYSLIST(&OP+1,3)' EQ '' AND '&SYSLIST(&OP+1,4)' EQ '').ERR1  02400002
  AIF   ('&SYSLIST(&OP+1,3)' EQ '' OR '&SYSLIST(&OP+1,4)' EQ '').ERR1   02500002
         AIF   ('&SYSLIST(&OP+1,3)' GT '&SYSLIST(&OP+1,4)').ERR3        02600002
&START1  SETA  &SYSLIST(&OP+1,3)        GET START COUNT OF 1            02700002
&START2  SETA  &SYSLIST(&OP+1,4)        GET FIRST END COUNT             02800002
         AGO   .SET2A                   BRANCH AROUND                   02900002
.ERR1    MNOTE '**FIRST SYMBOL CONCATENATION INCOMPLETE**'              03000002
         MEXIT                                                          03100002
.SET2A   AIF   ('&SYSLIST(&OP+1,5)' EQ ''AND '&SYSLIST(&OP+1,6)' EQ '' X03200002
               ).SET2                   TEST FOR NO SECOND              03300002
  AIF   ('&SYSLIST(&OP+1,5)' EQ '' OR '&SYSLIST(&OP+1,6)' EQ '').ERR2   03400002
         AIF   ('&SYSLIST(&OP+1,5)' GT '&SYSLIST(&OP+1,6)').ERR3        03500002
&END1    SETA  &SYSLIST(&OP+1,5)        GET START COUNT OF 2            03600002
&END2    SETA  &SYSLIST(&OP+1,6)        GET END COUNT OF 2              03700002
         AGO   .LOOP                                                    03800002
.SET2    ANOP                                                           03900002
&ONLY1   SETB  1                        INDICATE ONLY ONE CONCATENATION 04000002
         AGO   .LOOP                                                    04100002
.ERR2    MNOTE '**SECOND SYMBOL CONCATENATION INCOMPLETE**'             04200002
         MEXIT                                                          04300002
.ERR3    MNOTE '**START GREATER THAN END CONCATENATION**'               04400002
         MEXIT                                                          04500002
.LOOP    ANOP                                                           04600002
&OP      SETA  &OP+1                                                    04700002
         AIF   (&OP GT N'&SYSLIST).DONE      TEST IF ALL DONE           04800002
&ITEMNBR SETA  &ITEMNBR+1                                               04900002
         AIF   ('&SYSLIST(&OP,2)' NE '').OK1                            05000002
         MNOTE '**NULL BIT COUNT FIELD**'                               05100002
         MEXIT                                                          05200002
.OK1     ANOP                                                           05300002
&SYMBOL  SETC  '&SYSLIST(&OP,1)'                                        05400002
         AIF   ('&SYMBOL' NE '').OK                                     05500002
*              *****     LOG ITEM SYMBOL NOT PROVIDED     *****         05600002
         AIF   ('&SYSLIST(&OP,3)' NE 'EQU').CNT                         05700002
         AGO   .START                   GET NEXT                        05800002
.OK      AIF   (N'&SYSLIST(&OP) LT 3).NO3    TEST FOR OLD FORMAT        05900002
         AIF   ('&SYSLIST(&OP,3)' EQ 'EQU').EQU   TEST FOR EQU          06000002
         AIF   (&ONLY1).OK2             TEST FOR ONLY ONE CONCAT        06100002
&SYMBOL  SETC  '&SYMBOL.&START1.&END1'       GET 1 AND 2 CONCAT         06200002
         AGO   .NO3                     BRANCH AROUND                   06300002
.OK2     ANOP                                                           06400002
&SYMBOL  SETC  '&SYMBOL.&START1'        GET 1 CONCATENATED              06500002
.NO3     ANOP                                                           06600002
&SYMBOL  EQU   *+&BYTE                                                  06700002
&ITEM(&ITEMNBR) SETC '&SYMBOL'          GET LABEL IN GLOBAL             06800002
&BITS(&ITEMNBR) SETA &SYSLIST(&OP,2)                                    06900002
&SHIFT(&ITEMNBR) SETA &COUNT-&BYTE*8                                    07000002
.CNT     ANOP                                                           07100002
&CTIND   SETB  1                        SET COUNT INDICATOR             07200002
&COUNT   SETA  &COUNT+&SYSLIST(&OP,2)                                   07300002
&BYTE    SETA  &COUNT/8                                                 07400002
         AIF   (N'&SYSLIST(&OP) LT 3).START  TEST FOR OLD FORMAT        07500002
         AIF   (&ONLY1).TSTST           TEST FOR ONLY ONE CONCAT        07600002
         AIF   (&END1 EQ &END2).TSTST   TEST FOR SECOND END             07700002
&END1    SETA  &END1+1                  INCREMENT COUNT                 07800002
&OP      SETA  &OP-1                    DECREMENT INCREMENT             07900002
         AGO   .LOOP                    GENERATE NEXT                   08000002
.TSTST   ANOP                                                           08100002
         AIF   (&START1 EQ &START2).LPDONE   TEST FOR END               08200002
         AIF   (&ONLY1).NSET1           TEST FOR ONLY ONE CONCAT        08300002
&END1    SETA  &SYSLIST(&OP,5)          RE-INIT SECOND START COUNT      08400002
.NSET1   ANOP                                                           08500002
&OP      SETA  &OP-1                    DECREMENT INDEX                 08600002
&START1  SETA  &START1+1                INCREMENT FIRST COUNT           08700002
         AGO   .LOOP                    GO DO NEXT                      08800002
.LPDONE  ANOP                                                           08900002
&ONLY1   SETB  0                        CLEAR INDICATOR                 09000002
         AGO   .START                   GO TEST FOR MORE SUB-LISTS      09100002
.DONE    AIF   (&COUNT-&COUNT/8*8 NE 0).ERR  TEST FOR MULTIPLE OF EIGHT 09200002
         AIF   (&CTIND EQ 0).END        NO DS IF NO COUNT               09300002
&COUNT   SETA  &COUNT/8                 GET NUMBER OF BYTES             09400002
&NAME    DS    &COUNT.C                                                 09500002
.END     MEXIT                                                          09600002
.ERR     MNOTE '**BIT COUNT FLDS DO NOT TOTAL MULTIPLE OF 8**'          09700002
         MEXIT                                                          09800002
.EQU     AIF   ('&SYSLIST(&OP,4)' NE '').EQU1     TEST FOR NULL LABEL   09900002
.ERR4    MNOTE '**EQU OPERAND OMITTED OR NOT FOUND**'                   10000002
         MEXIT                                                          10100002
.EQU1    AIF   (&SYSLIST(&OP,2) LT 16).EQU2  COUNT OVER FIFTEEN         10200002
*****               THE FOLLOWING STATEMENT                *****        10300002
*****     NUMBER OF BITS EXCEED 15 - DO NOT USE AS BIN     *****        10400002
.EQU2    ANOP                                                           10500002
&EQUCNT  SETA  0                        CLEAR COUNTER                   10600002
&EQUSYM  SETC  '&SYSLIST(&OP,4)'        GET EQU OPERAND                 10700002
.EQULOP  ANOP                                                           10800002
&EQUCNT  SETA  &EQUCNT+1                INCREMENT INDEX                 10900002
         AIF   ('&ITEM(&EQUCNT)' EQ '&EQUSYM').EQUOUT  LABEL FOUND?     11000002
         AIF   (&EQUCNT EQ &ITEMNBR).ERR3    ALL TESTED?                11100002
         AGO   .EQULOP                  NO-GET NEXT                     11200002
.EQUOUT  ANOP                                                           11300002
&ITEM(&ITEMNBR) SETC '&SYMBOL'          GET LABEL NAME                  11400002
&BITS(&ITEMNBR) SETA &SYSLIST(&OP,2)    GET NUMBER OF BITS              11500002
&SHIFT(&ITEMNBR) SETA &SHIFT(&EQUCNT)   GET SHIFT COUNT                 11600002
&SYMBOL  EQU   &EQUSYM                  THIS SYMBOL EQUATED             11700002
         AGO   .START                   RETURN FOR NEXT                 11800002
         MEND                                                           11900002
*  LINE MACRO     LINE MACRO     LINE MACRO     LINE MACRO            * 12000002
         SPACE 2                                                        12100002
         MACRO                                                          12200002
&NAME    LINE  &DATA,&LABEL,&SKIP=                                      12300002
.*                            THIS MACRO ESTABLISHES THE MARGINS OR     12400002
.*                                 COLUMN SETTINGS FOR EACH LINE. IT    12500002
.*                                 GENERATES NECESSARY CARRIAGE CONTROL 12600002
.*                                 ENTRIES. LASTLY IT DETERMINES THE    12700002
.*                                 NUMBER OF ENTRIES ASSOCIATED WITH    12800002
.*                                 THE PREVIOUS LINE AND STORES THAT #  12900002
.*                                 INTO THE APPROPRIATE BYTE.           13000002
.*                            &DATA(1) - CHARACTER POSITION TO BEGIN    13100002
.*                                 DATA.                                13200002
.*                            &DATA(2) - # OF SPACES BETWEEN SUCCESSIVE 13300002
.*                                 DATA COLUMN STARTING CHARACTERS.     13400002
.*                            &LABEL(1) - CHAR. POS. TO BEGIN LABELS.   13500002
.*                            &LABEL(2) - # SPACES BETWEEN LINE'S LABEL 13600002
.*                                 STARTING CHARACTERS.                 13700002
.*                            &SKIP= - # OF LINES TO ADVANCE CARRIAGE   13800002
.*                                 TO BEGIN NEXT PRINTED LINE.          13900002
.*                            NEW ENTRIES ARE GENERATED ONLY WHEN       14000002
.*                                 NECESSARY. OMISSION OF ITEMS MEANS   14100002
.*                                 THEY HAVE NOT CHANGED SINCE PREVIOUS 14200002
.*                                 SETTINGS. A LINE MACRO IS REQUIRED   14300002
.*                                 FOR EACH PRINTED LINE. IF NO SETTING 14400002
.*                                 CHANGES ARE REQUIRED ALL OPERANDS    14500002
.*                                 ARE OMITTED IN WHICH CASE ONLY THE   14600002
.*                                 # OF ENTRIES FOR THE PREVIOUS LINE   14700002
.*                                 IS COMPUTED. THIS MACRO MUST BE THE  14800002
.*                                 FIRST MACRO INSTRUCTION ISSUED FOR   14900002
.*                                 THE SUBJECT LINE                     15000002
         GBLA  &DB,&DT,&LB,&LT,&NRENTS                                  15100002
         GBLA  &LASTCC,&INITIAL                                         15200002
         GBLC  &NRENTSX                                                 15300002
         GBLC  &CARRCON                                                 15400002
         GBLB  &TEST                                                    15500002
         LCLA  &S                                                       15600002
&NAME    DS    0C                                                       15700002
         AIF   (&INITIAL EQ 0).FIRSTLN                                  15800002
         LINEND                                                         15900002
         AGO   .NTFIRST                                                 16000002
.FIRSTLN ANOP                                                           16100002
&NRENTSX SETC  'N&SYSNDX'                                               16200002
&INITIAL SETA  1                                                        16300002
N&SYSNDX EQU   *                                                        16400002
.NTFIRST ANOP                                                           16500002
         DC    AL1(0)                                                   16600002
         AIF   ('&DATA(1)' EQ '').CKDTABS                               16700002
         AIF   (&DATA(1) EQ &DB).CKDTABS                                16800002
&DB      SETA  &DATA(1)                                                 16900002
         AGO   .AA                                                      17000002
.CKDTABS AIF   ('&DATA(2)' EQ '').NCDATA                                17100002
         AIF   (&DATA(2) EQ &DT).NCDATA                                 17200002
         AGO   .CC                                                      17300002
.AA      AIF   ('&DATA(2)' EQ '').BB                                    17400002
         AIF   (&DATA(2) EQ &DT).BB                                     17500002
.CC      ANOP                                                           17600002
&DT      SETA  &DATA(2)                                                 17700002
.BB      DC    XL2'FFFE'                                                17800002
         DC    FL1'&DB'                                                 17900002
         DC    FL1'&DT'                                                 18000002
&NRENTS  SETA  &NRENTS+1                                                18100002
.NCDATA  ANOP                                                           18200002
         AIF   ('&LABEL(1)' EQ '').CKLTABS                              18300002
         AIF   (&LABEL(1) EQ &LB).CKLTABS                               18400002
&LB      SETA  &LABEL(1)                                                18500002
         AGO   .AAA                                                     18600002
.CKLTABS AIF   ('&LABEL(2)' EQ '').NCLABEL                              18700002
         AIF   (&LABEL(2) EQ &LT).NCLABEL                               18800002
         AGO   .CCC                                                     18900002
.AAA     AIF   ('&LABEL(2)' EQ '').BBB                                  19000002
         AIF   (&LABEL(2) EQ &LT).BBB                                   19100002
.CCC     ANOP                                                           19200002
&LT      SETA  &LABEL(2)                                                19300002
.BBB     DC    XL2'FFFF'                                                19400002
         DC    FL1'&LB'                                                 19500002
         DC    FL1'&LT'                                                 19600002
&NRENTS  SETA  &NRENTS+1                                                19700002
.NCLABEL ANOP                                                           19800002
         AIF   ('&SKIP' NE '').CONT                                     19900002
         AIF   (&TEST EQ 0).NOCHANG                                     20000002
&S       SETA  &LASTCC                                                  20100002
         AGO   .DEFAULT                                                 20200002
.CONT    ANOP                                                           20300002
         AIF   (&TEST EQ 0).AB                                          20400002
&S       SETA  &SKIP                                                    20500002
.DEFAULT ANOP                                                           20600002
         ORG   &CARRCON+3                                               20700002
         DC    AL.3(0),AL.2(&S),AL.3(1)                                 20800002
         ORG                                                            20900002
&LASTCC  SETA  &S                                                       21000002
&TEST    SETB  0                                                        21100002
         AGO   .DD                                                      21200002
.AB      AIF   (&SKIP EQ &LASTCC).NOCHANG                               21300002
A&SYSNDX DC    XL2'FFFB'                                                21400002
         DC    AL.3(0),AL.2(&SKIP),AL.3(1)                              21500002
         DC    FL1'9'                                                   21600002
&LASTCC  SETA  &SKIP                                                    21700002
&TEST    SETB  1                                                        21800002
&CARRCON SETC  'A&SYSNDX'                                               21900002
&NRENTS  SETA  &NRENTS+1                                                22000002
.DD      ANOP                                                           22100002
.NOCHANG ANOP                                                           22200002
         MEND                                                           22300002
         EJECT                                                          22400002
*  BIN MACRO     BIN MACRO     BIN MACRO     BIN MACRO     BIN MACRO  * 22500002
         SPACE 2                                                        22600002
         MACRO                                                          22700002
         BIN   &LOGITEM,&SKIP$OR                                        22800002
.*                                 &LOGITEM - NAME OF ITEM IN LOG       22900002
.*                                      RECORD DSECT                    23000002
.*                                 &SKIP$OR - NBR OF SPACES TO SKIP ON  23100002
.*                                 MULTIPLE PRINT OR NBR OF SPACES      23200002
.*                                      TO BACK UP FROM COLUMN FOR      23300002
.*                                      START OF PRINTING. THE LETTER   23400002
.*                                      B PRECEEDS THE NUMBER (B5) IF   23500002
.*                                      THE LATTER IS DESIRED. OMISSION 23600002
.*                                      OF THIS OPERAND FORCES OPTION 2 23700002
.*                                      WITH BACKUP SPACING EQUAL TO    23800002
.*                                 THE NUMBER OF BITS IN THE ITEM       23900002
.*                                 DEFINITION (VIA MACRO 'DSGEN').      24000002
.*                            A LIMIT OF 15 BITS IS IMPOSED FOR THE     24100002
.*                                 TOTAL NUMBER OF BITS TO PRINT.       24200002
         GBLC &ITEM(1000)                                               24300002
         GBLA &ITEMNBR,&BITS(1000),&SHIFT(1000),&NRENTS                 24400002
         GBLC  &DSECT                                                   24500002
         LCLB  &B                                                       24600002
         LCLA  &IBITS,&NDX,&ISHIFT,&K                                   24700002
         LCLA  &TEMP,&T                                                 24800002
         LCLC  &S                                                       24900002
.LOOP    ANOP                                                           25000002
&NDX     SETA  &NDX+1                                                   25100002
         AIF   ('&ITEM(&NDX)' EQ '&LOGITEM').FOUND                      25200002
         AIF   (&NDX LT &ITEMNBR).LOOP                                  25300002
         MNOTE *,'YOU BLEW IT'                                          25400002
         ROUTINE DUM,SKIPPER                                            25500002
         MEXIT                                                          25600002
.FOUND   ANOP                                                           25700002
&ISHIFT  SETA  &SHIFT(&NDX)                                             25800002
&IBITS   SETA  &BITS(&NDX)                                              25900002
&T       SETA  &IBITS-1                                                 26000002
&B       SETB  0                                                        26100002
         AIF   ('&SKIP$OR' EQ '').BACKUP                                26200002
&K       SETA  K'&SKIP$OR                                               26300002
&B       SETB  ('&SKIP$OR'(1,1) EQ 'B')                                 26400002
&S       SETC  '&SKIP$OR'(&B+1,&K-&B)                                   26500002
&T       SETA  &S                                                       26600002
.BACKUP  ANOP                                                           26700002
&NRENTS  SETA  &NRENTS+1                                                26800002
&TEMP    SETA  &ISHIFT                                                  26900002
A&SYSNDX DC    AL.12(&LOGITEM-&DSECT),XL.4'&TEMP'                       27000002
         AIF (&IBITS EQ 1 AND &B EQ 0).OUT                              27100002
         ORG   A&SYSNDX                                                 27200002
&B       SETB  1                                                        27300002
         DC    AL.12(&LOGITEM-&DSECT),XL.4'C'                           27400002
         DC    BL.1'&B',AL.7(&T),AL.4(&IBITS),FL.4'&ISHIFT'             27500002
.OUT     ANOP                                                           27600002
         MEND                                                           27700002
         EJECT                                                          27800002
*  HEX MACRO     HEX MACRO     HEX MACRO    HEXN MACRO     HEX MACRO  * 27900002
         SPACE 2                                                        28000002
         MACRO                                                          28100002
         HEX   &LOGITEM,&SKIP$OR,&BYTES                                 28200002
.*                            THIS MACRO FACILITATES GENERATION OF THE  28300002
.*                                 TABLE ENTRIES SPECIFYING HEX TYPE    28400002
.*                                 CONVERSIONS.                         28500002
.*                            &LOGITEM - NAME OF DATA ITEM TO BE        28600002
.*                                 CONVERTED                            28700002
.*                            &SKIP$OR - NUMBER OF SPACES TO SKIP ON    28800002
.*                                 MULTIPLE PRINT OR NBR OF SPACES TO   28900002
.*                                 BACK UP FROM COLUMN FOR START OF     29000002
.*                                 PRINTING. THE LETTER B PRECEEDS THE  29100002
.*                                 NUMBER (B8) IF THE LATTER OPTION IS  29200002
.*                                 DESIRED. OMISSION OF THIS OPERAND    29300002
.*                                 FORCES OPTION 2 WITH BACKUP SPACING  29400002
.*                                 EQUAL TO THE NUMBER OF BYTES SPECI-  29500002
.*                                 FIED BY THE NEXT OPERAND (TWICE THIS 29600002
.*                                 NUMBER IF SUFFIX IS EXPLICITLY OR    29700002
.*                                 IMPLICITLY B).                       29800002
.*                            &BYTES - NUMBER OF TOTAL INPUT BYTES TO   29900002
.*                                 PROCESS. THIS NUMBER IS SUFFIXED     30000002
.*                                 WITH AN L,R, OR B TO STIPULATE       30100002
.*                                 PRINTING OF THE LEFT HALF, RIGHT     30200002
.*                                 HALF, OR BOTH HALVES OF THE BYTE     30300002
.*                                 RESPECTIVELY. OMISSION OF THIS       30400002
.*                                 OPERAND DEFAULTS TO B WITH THE NUM-  30500002
.*                                 BER OF BYTES EQUAL TO THE ITEM LNGTH 30600002
.*                            A NEW ENTRY IS GENERATED ONLY WHEN NECES- 30700002
.*                                 SARY. THIS MACRO MUST BE THE FIRST   30800002
.*                                 MACRO INSTRUCTION ISSUED FOR THE     30900002
.*                                 SUBJECT LINE(S).                     31000002
         GBLC &ITEM(1000),&DSECT                                        31100002
         GBLA &ITEMNBR,&BITS(1000),&SHIFT(1000),&NRENTS                 31200002
         LCLB  &B                                                       31300002
         LCLA  &IBITS,&NDX,&ISHIFT,&K,&T,&CODE,&BYTESP                  31400002
         LCLC  &S,&LETTER                                               31500002
.LOOP    ANOP                                                           31600002
&NDX     SETA  &NDX+1                                                   31700002
         AIF   ('&ITEM(&NDX)' EQ '&LOGITEM').FOUND                      31800002
         AIF   (&NDX LT &ITEMNBR).LOOP                                  31900002
         MNOTE *,'LOG ITEM NOT DEFINED'                                 32000002
         MEXIT                                                          32100002
.FOUND   ANOP                                                           32200002
&ISHIFT  SETA  &SHIFT(&NDX)                                             32300002
&IBITS   SETA  &BITS(&NDX)                                              32400002
&CODE    SETA  1                                                        32500002
&K       SETA  K'&BYTES                                                 32600002
         AIF   (&IBITS-(&IBITS/4)*4 EQ 0).OK                            32700002
         MNOTE *,'BIT LENGTH SPECIFICATION INCONSISTENT WITH CONTROL'   32800002
         MEXIT                                                          32900002
.OK      AIF   ('&BYTES' EQ '').USEDEFN                                 33000002
&LETTER  SETC  '&BYTES'(&K,1)                                           33100002
&S       SETC  '&BYTES'(1,&K-1)                                         33200002
&BYTESP  SETA  &S                                                       33300002
         AIF   ('&LETTER' EQ 'B').BOTH                                  33400002
         AIF   (&ISHIFT EQ 0 OR &ISHIFT EQ 4).OK2                       33500002
.ERR     MNOTE *,'DATA NOT ALLIGNED ON HEX OR BYTE BOUNDARY'            33600002
         MEXIT                                                          33700002
.USEDEFN ANOP                                                           33800002
&BYTESP  SETA  &IBITS/8                                                 33900002
.BOTH    AIF   (&ISHIFT NE 0).ERR                                       34000002
&CODE    SETA  3                                                        34100002
&T       SETA  &BYTESP*2-1                                              34200002
&S       SETC  '&T'                                                     34300002
.OK2     AIF   (&ISHIFT EQ 0).L                                         34400002
&CODE    SETA  2                                                        34500002
.L       ANOP                                                           34600002
&B       SETB  1                                                        34700002
         AIF   ('&SKIP$OR' EQ '').BACKUP                                34800002
&K       SETA  K'&SKIP$OR                                               34900002
&B       SETB  ('&SKIP$OR'(1,1) EQ 'B')                                 35000002
&S       SETC  '&SKIP$OR'(&B+1,&K-&B)                                   35100002
.BACKUP  ANOP                                                           35200002
&NRENTS  SETA  &NRENTS+1                                                35300002
         DC    AL.12(&LOGITEM-&DSECT),XL.4'A'                           35400002
         DC    BL.1'&B',FL.7'&S',FL.4'&BYTESP',FL.4'&CODE'              35500002
.OUT     ANOP                                                           35600002
         MEND                                                           35700002
         SPACE 2                                                        35800002
*  ROUTINE MACRO     ROUTINE MACRO     ROUTINE MACRO     ROUTINE MACRO* 35900002
         SPACE 2                                                        36000002
         MACRO                                                          36100002
&NAME    ROUTINE &LOGITEM,&RNAME                                        36200002
         GBLC  &DSECT,&CSECT                                            36300002
         GBLC  &ITEM(1000)                                              36400002
         GBLA  &SHIFT(1000),&ITEMNBR                                    36500002