         TITLE 'IFCSXXXD - SUMMARY TABLE - LINKNAME=IFCST002, ALIASES=IC00055042
               FCST012,IFCS2305'                                        00110042
         SPACE 2                                                        00165042
*  LINE MACRO     LINE MACRO     LINE MACRO     LINE MACRO            * 00220042
         MACRO                                                          00275042
&NAME    LINE  &DATA,&LABEL,&SKIP=                                      00330042
.*                            THIS MACRO ESTABLISHES THE MARGINS OR     00385042
.*                                 COLUMN SETTINGS FOR EACH LINE. IT    00440042
.*                                 GENERATES NECESSARY CARRIAGE CONTROL 00495042
.*                                 ENTRIES. LASTLY IT DETERMINES THE    00550042
.*                                 NUMBER OF ENTRIES ASSOCIATED WITH    00605042
.*                                 THE PREVIOUS LINE AND STORES THAT #  00660042
.*                                 INTO THE APPROPRIATE BYTE.           00715042
.*                            &DATA(1) - CHARACTER POSITION TO BEGIN    00770042
.*                                 DATA.                                00825042
.*                            &DATA(2) - # OF SPACES BETWEEN SUCCESSIVE 00880042
.*                                 DATA COLUMN STARTING CHARACTERS.     00935042
.*                            &LABEL(1) - CHAR. POS. TO BEGIN LABELS.   00990042
.*                            &LABEL(2) - # SPACES BETWEEN LINE'S LABEL 01045042
.*                                 STARTING CHARACTERS.                 01100042
.*                            &SKIP= - # OF LINES TO ADVANCE CARRIAGE   01155042
.*                                 TO BEGIN NEXT PRINTED LINE.          01210042
.*                            NEW ENTRIES ARE GENERATED ONLY WHEN       01265042
.*                                 NECESSARY. OMISSION OF ITEMS MEANS   01320042
.*                                 THEY HAVE NOT CHANGED SINCE PREVIOUS 01375042
.*                                 SETTINGS. A LINE MACRO IS REQUIRED   01430042
.*                                 FOR EACH PRINTED LINE. IF NO SETTING 01485042
.*                                 CHANGES ARE REQUIRED ALL OPERANDS    01540042
.*                                 ARE OMITTED IN WHICH CASE ONLY THE   01595042
.*                                 # OF ENTRIES FOR THE PREVIOUS LINE   01650042
.*                                 IS COMPUTED. THIS MACRO MUST BE THE  01705042
.*                                 FIRST MACRO INSTRUCTION ISSUED FOR   01760042
.*                                 THE SUBJECT LINE                     01815042
         GBLA  &DB,&DT,&LB,&LT,&NRENTS                                  01870042
         GBLA  &LASTCC,&INITIAL                                         01925042
         GBLC  &NRENTSX                                                 01980042
         GBLC  &CARRCON                                                 02035042
         GBLB  &TEST                                                    02090042
         LCLA  &S                                                       02145042
&NAME    DS    0C                                                       02200042
         AIF   (&INITIAL EQ 0).FIRSTLN                                  02255042
         LINEND                                                         02310042
         AGO   .NTFIRST                                                 02365042
.FIRSTLN ANOP                                                           02420042
&NRENTSX SETC  'N&SYSNDX'                                               02475042
&INITIAL SETA  1                                                        02530042
N&SYSNDX EQU   *                                                        02585042
.NTFIRST ANOP                                                           02640042
         DC    AL1(0)                                                   02695042
         AIF   ('&DATA(1)' EQ '').CKDTABS                               02750042
         AIF   (&DATA(1) EQ &DB).CKDTABS                                02805042
&DB      SETA  &DATA(1)                                                 02860042
         AGO   .AA                                                      02915042
.CKDTABS AIF   ('&DATA(2)' EQ '').NCDATA                                02970042
         AIF   (&DATA(2) EQ &DT).NCDATA                                 03025042
         AGO   .CC                                                      03080042
.AA      AIF   ('&DATA(2)' EQ '').BB                                    03135042
         AIF   (&DATA(2) EQ &DT).BB                                     03190042
.CC      ANOP                                                           03245042
&DT      SETA  &DATA(2)                                                 03300042
.BB      DC    XL2'FFFE'                                                03355042
         DC    FL1'&DB'                                                 03410042
         DC    FL1'&DT'                                                 03465042
&NRENTS  SETA  &NRENTS+1                                                03520042
.NCDATA  ANOP                                                           03575042
         AIF   ('&LABEL(1)' EQ '').CKLTABS                              03630042
         AIF   (&LABEL(1) EQ &LB).CKLTABS                               03685042
&LB      SETA  &LABEL(1)                                                03740042
         AGO   .AAA                                                     03795042
.CKLTABS AIF   ('&LABEL(2)' EQ '').NCLABEL                              03850042
         AIF   (&LABEL(2) EQ &LT).NCLABEL                               03905042
         AGO   .CCC                                                     03960042
.AAA     AIF   ('&LABEL(2)' EQ '').BBB                                  04015042
         AIF   (&LABEL(2) EQ &LT).BBB                                   04070042
.CCC     ANOP                                                           04125042
&LT      SETA  &LABEL(2)                                                04180042
.BBB     DC    XL2'FFFF'                                                04235042
         DC    FL1'&LB'                                                 04290042
         DC    FL1'&LT'                                                 04345042
&NRENTS  SETA  &NRENTS+1                                                04400042
.NCLABEL ANOP                                                           04455042
         AIF   ('&SKIP' NE '').CONT                                     04510042
         AIF   (&TEST EQ 0).NOCHANG                                     04565042
&S       SETA  &LASTCC                                                  04620042
         AGO   .DEFAULT                                                 04675042
.CONT    ANOP                                                           04730042
         AIF   (&TEST EQ 0).AB                                          04785042
&S       SETA  &SKIP                                                    04840042
.DEFAULT ANOP                                                           04895042
         ORG   &CARRCON+3                                               04950042
         DC    AL.3(0),AL.2(&S),AL.3(1)                                 05005042
         ORG                                                            05060042
&LASTCC  SETA  &S                                                       05115042
&TEST    SETB  0                                                        05170042
         AGO   .DD                                                      05225042
.AB      AIF   (&SKIP EQ &LASTCC).NOCHANG                               05280042
A&SYSNDX DC    XL2'FFFB'                                                05335042
         DC    AL.3(0),AL.2(&SKIP),AL.3(1)                              05390042
         DC    FL1'9'                                                   05445042
&LASTCC  SETA  &SKIP                                                    05500042
&TEST    SETB  1                                                        05555042
&CARRCON SETC  'A&SYSNDX'                                               05610042
&NRENTS  SETA  &NRENTS+1                                                05665042
.DD      ANOP                                                           05720042
.NOCHANG ANOP                                                           05775042
         MEND                                                           05830042
         EJECT                                                          05885042
         SPACE 2                                                        05940042
*  ROUTINE MACRO     ROUTINE MACRO     ROUTINE MACRO     ROUTINE MACRO* 05995042
         MACRO                                                          06050042
&NAME    ROUTINE &LOGITEM,&RNAME                                        06105042
         GBLC  &DSECT,&CSECT                                            06160042
         GBLC  &ITEM(1000)                                              06215042
         GBLA  &SHIFT(1000),&ITEMNBR                                    06270042
         GBLA  &NRENTS                                                  06325042
         LCLA  &ISHIFT,&NDX                                             06380042
.LOOP    ANOP                                                           06435042
&NDX     SETA  &NDX+1                                                   06490042
         AIF   ('&ITEM(&NDX)' EQ '&LOGITEM').FOUND                      06545042
         AIF   (&NDX LT &ITEMNBR).LOOP                                  06600042
         MNOTE *,'LOG ITEM NOT DEFINED'                                 06655042
         MEXIT                                                          06710042
.FOUND   ANOP                                                           06765042
&ISHIFT  SETA  &SHIFT(&NDX)                                             06820042
&NAME    DC    AL.12(&LOGITEM-&DSECT),XL.4'D'                           06875042
         DC    AL.4(&ISHIFT),AL.12(&RNAME-&CSECT)                       06930042
&NRENTS  SETA  &NRENTS+1                                                06985042
         MEND                                                           07040042
         MACRO                                                          07095042
&NAME    LABEL &LABEL1,&LABEL2,&LABEL3,&LABEL4,&LABEL5,&LABEL6,        C07150042
               &LABEL7,&LABEL8                                          07205042
.*                            THIS MACRO ALLOWS UP TO ACHT LABELS TO    07260042
.*                                 BE SPECIFIED FOR A GIVEN LINE. THE   07315042
.*                                 LABELS SHOULD BE ENCLOSED IN QUOTA-  07370042
.*                                 TION MARKS. THE COLUMN AND LINE END  07425042
.*                                 CONTROLS WILL BE INSERTED BY THE     07480042
.*                                 MACRO. OMITTED OPERANDS MEAN NO      07535042
.*                                 LABEL REQUIRED FOR RESPECTIVE        07590042
.*                                 COLUMN. THIS MACRO WILL ALSO ALERT   07645042
.*                                 THE PROGRAMMER TO EXACTLY WHERE THE  07700042
.*                                 TABLE MUST BE BROKEN IF NECESSARY    07755042
.*                                 TO AVOID EXCEEDING THE MAXIMUM LIMIT 07810042
         GBLC &LABELS(2000)                                             07865042
         GBLC  &LBL(100)                                                07920042
         GBLA  &LBLCTR(100)                                             07975042
         GBLA  &LABELNR                                                 08030042
         GBLA  &NRENTS,&LPTR                                            08085042
         LCLC  &MARGIN,&TACK                                            08140042
         LCLC  &TEXT                                                    08195042
         LCLA  &OP,&K,&START,&NRCHAR,&REMAIN                            08250042
&MARGIN  SETC  '*'                                                      08305042
         AIF   ('&NAME' EQ '').LOOPOUT                                  08360042
&LPTR    SETA  &LPTR+1                                                  08415042
&LBL(&LPTR) SETC '&NAME'                                                08470042
&LBLCTR(&LPTR) SETA &LABELNR+1                                          08525042
.LOOPOUT ANOP                                                           08580042
&OP      SETA  &OP+1                                                    08635042
&K       SETA  K'&SYSLIST(&OP)                                          08690042
         AIF (&K GE 2).NORM                                             08745042
&K       SETA  2                                                        08800042
.NORM    ANOP                                                           08855042
&START   SETA  2                                                        08910042
         AIF (&OP LT N'&SYSLIST).NOTLAST                                08965042
&MARGIN  SETC  '$'                                                      09020042
.NOTLAST ANOP                                                           09075042
&NRCHAR  SETA  8                                                        09130042
&TACK    SETC  ''                                                       09185042
.LOOPIN  ANOP                                                           09240042
&REMAIN  SETA  &K-&START                                                09295042
         AIF (&REMAIN GE 8).MORE                                        09350042
&TACK    SETC  '&MARGIN'                                                09405042
&NRCHAR  SETA  &REMAIN                                                  09460042
.MORE    ANOP                                                           09515042
&TEXT    SETC  ''                                                       09570042
         AIF (&REMAIN EQ 0).ENDTEXT                                     09625042
&TEXT    SETC  '&SYSLIST(&OP)'(&START,&NRCHAR)                          09680042
.ENDTEXT ANOP                                                           09735042
&LABELNR SETA  &LABELNR+1                                               09790042
&LABELS(&LABELNR) SETC '&TEXT'.'&TACK'                                  09845042
&START   SETA  &START+8                                                 09900042
         AIF ('&TACK' EQ '').LOOPIN                                     09955042
         AIF ('&TACK' EQ '*').LOOPOUT                                   10010042
         MEND                                                           10065042
*  DSGEN MACRO     DSGEN MACRO     DSGEN MACRO     DSGEN MACRO        * 10120042
         SPACE 2                                                        10175042
         MACRO                                                          10230042
&NAME    DSGEN &X1,&X2,&X3,&X4,&X5,&X6,&X7,&X8,&X9,&X10,&X11,&X12,&X13,X10285042
               &X14,&X15,&X16,&X17,&X18,&X19,&X20,&X21,&X22,&X23,&X24, X10340042
               &X25,&X26,&X27,&X28,&X29,&X30,&X31,&X32                  10395042
.*                            THIS MACRO GENERATES ONE DSECT WORD       10450042
.*                                 FORMATTED FOR THE SUBJECT LOG RECORD 10505042
.*                                 EACH OPERAND HAS TWO SUB LISTS. THE  10560042
.*                                 FIRST IS THE NAME OF THE LOG ITEM    10615042
.*                                 WHILE THE SECOND IS THE # OF BITS TO 10670042
.*                                 ALLOCATE FOR THIS ITEM. ITEMS MUST   10725042
.*                                 BE DEFINED CONTIGUOUSLY WITHOUT GAPS 10780042
.*                                 UNUSED BIT GROUPS MUST BE GIVEN      10835042
.*                                 DUMMY NAMES. THE NAMES PROVIDED FOR  10890042
.*                                 THE LOG ITEMS MAY THEN BE USED IN    10945042
.*                                 THE CONVERSION MACRO INSTRUCTIONS.   11000042
         GBLC &ITEM(1000)                                               11055042
         GBLA &ITEMNBR,&BITS(1000),&SHIFT(1000)                         11110042
         LCLC  &SYMBOL                                                  11165042
         LCLA  &OP,&COUNT,&BYTE                                         11220042
.LOOP    ANOP                                                           11275042
&OP      SETA  &OP+1                                                    11330042
&ITEMNBR SETA  &ITEMNBR+1                                               11385042
&SYMBOL  SETC  '&SYSLIST(&OP,1)'                                        11440042
         AIF   ('&SYSLIST(&OP,2)' NE '').OK1                            11495042
         MNOTE *,'NULL BIT COUNT FIELD'                                 11550042
         MEXIT                                                          11605042
.OK1     ANOP                                                           11660042
         AIF   ('&SYMBOL' NE '').OK                                     11715042
         MNOTE 'LOG ITEM SYMBOL NOT PROVIDED'                           11770042
         AGO   .CNT                                                     11825042
.OK      ANOP                                                           11880042
         AIF   ('&SYMBOL'(1,1) EQ '''').CNT                *TEMP*       11935042
&SYMBOL  EQU   *+&BYTE                                                  11990042
&ITEM(&ITEMNBR)  SETC '&SYSLIST(&OP,1)'                                 12045042
&BITS(&ITEMNBR) SETA &SYSLIST(&OP,2)                                    12100042
&SHIFT(&ITEMNBR) SETA &COUNT-&BYTE*8                                    12155042
.CNT     ANOP                                                           12210042
&COUNT   SETA  &COUNT+&SYSLIST(&OP,2)                                   12265042
&BYTE    SETA  &COUNT/8                                                 12320042
         AIF (&OP LT N'&SYSLIST).LOOP                                   12375042
         AIF   (&COUNT NE 32).NOT32                                     12430042
&NAME    DS    4C                                                       12485042
         MEXIT                                                          12540042
.NOT32   AIF   (&COUNT NE 64).ERR                                       12595042
&NAME    DS    8C                                                       12650042
         MEXIT                                                          12705042
.ERR     MNOTE '**BIT COUNT FIELDS DO NOT TOTAL 32 OR 64**'             12760042
         MEND                                                           12815042
         MACRO                                                          12870042
         LINEND                                                         12925042
.*                            THIS MACRO IS USED ONLY BY THE LINE       12980042
.*                                 MACRO TO SET THE NUMBER OF ENTRIES   13035042
.*                                 ASSOCIATED WITH EACH LINE.           13090042
         GBLA  &NRENTS                                                  13145042
         GBLC &NRENTSX                                                  13200042
         ORG   &NRENTSX                                                 13255042
         DC    FL1'&NRENTS'                                             13310042
         ORG                                                            13365042
&NRENTS  SETA  0                                                        13420042
B&SYSNDX EQU   *                                                        13475042
&NRENTSX SETC  'B&SYSNDX'                                               13530042
         MEND                                                           13585042
         MACRO                                                          13640042
         LSTART                                                         13695042
.*                            THIS MACRO IS ISSUED WHEN THE LABEL AREA  13750042
.*                                 OF THE TABLE IS TO BEGIN.            13805042
         GBLC &LABELS(2000)                                             13860042
         GBLA  &LABELNR                                                 13915042
         GBLC  &LBL(100)                                                13970042
         GBLA  &LBLCTR(100)                                             14025042
         LCLA  &NDX,&CTR                                                14080042
         LINEND                                                         14135042
&CTR     SETA  1                                                        14190042
.LOOP    ANOP                                                           14245042
&NDX     SETA  &NDX+1                                                   14300042
         AIF   (&LBLCTR(&CTR) NE &NDX).NOLBL                            14355042
&LBL(&CTR) DC  C'&LABELS(&NDX)'                                         14410042
&CTR     SETA  &CTR+1                                                   14465042
         AGO   .LOOPCTL                                                 14520042
.NOLBL   ANOP                                                           14575042
         DC    C'&LABELS(&NDX)'                                         14630042
.LOOPCTL AIF   (&NDX LT &LABELNR).LOOP                                  14685042
         MEND                                                           14740042
         SPACE 2                                                        14795042
*  BIN MACRO     BIN MACRO     BIN MACRO     BIN MACRO     BIN MACRO  * 14850042
         SPACE 2                                                        14905042
         MACRO                                                          14960042
         BIN   &LOGITEM,&SKIP$OR                                        15015042
.*                                 &LOGITEM - NAME OF ITEM IN LOG       15070042
.*                                      RECORD DSECT                    15125042
.*                                 &SKIP$OR - NBR OF SPACES TO SKIP ON  15180042
.*                                 MULTIPLE PRINT OR NBR OF SPACES      15235042
.*                                      TO BACK UP FROM COLUMN FOR      15290042
.*                                      START OF PRINTING. THE LETTER   15345042
.*                                      B PRECEEDS THE NUMBER (B5) IF   15400042
.*                                      THE LATTER IS DESIRED. OMISSION 15455042
.*                                      OF THIS OPERAND FORCES OPTION 2 15510042
.*                                      WITH BACKUP SPACING EQUAL TO    15565042
.*                                 THE NUMBER OF BITS IN THE ITEM       15620042
.*                                 DEFINITION (VIA MACRO 'DSGEN').      15675042
.*                            A LIMIT OF 15 BITS IS IMPOSED FOR THE     15730042
.*                                 TOTAL NUMBER OF BITS TO PRINT.       15785042
         GBLC &ITEM(1000)                                               15840042
         GBLA &ITEMNBR,&BITS(1000),&SHIFT(1000),&NRENTS                 15895042
         GBLC  &DSECT                                                   15950042
         LCLB  &B                                                       16005042
         LCLA  &IBITS,&NDX,&ISHIFT,&K                                   16060042
         LCLA  &TEMP,&T                                                 16115042
         LCLC  &S                                                       16170042
.LOOP    ANOP                                                           16225042
&NDX     SETA  &NDX+1                                                   16280042
         AIF   ('&ITEM(&NDX)' EQ '&LOGITEM').FOUND                      16335042
         AIF   (&NDX LT &ITEMNBR).LOOP                                  16390042
         MNOTE *,'YOU BLEW IT'                                          16445042
         ROUTINE DUM,SKIPPER                                            16500042
         MEXIT                                                          16555042
.FOUND   ANOP                                                           16610042
&ISHIFT  SETA  &SHIFT(&NDX)                                             16665042
&IBITS   SETA  &BITS(&NDX)                                              16720042
&T       SETA  &IBITS-1                                                 16775042
&B       SETB  0                                                        16830042
         AIF   ('&SKIP$OR' EQ '').BACKUP                                16885042
&K       SETA  K'&SKIP$OR                                               16940042
&B       SETB  ('&SKIP$OR'(1,1) EQ 'B')                                 16995042
&S       SETC  '&SKIP$OR'(&B+1,&K-&B)                                   17050042
&T       SETA  &S                                                       17105042
.BACKUP  ANOP                                                           17160042
&NRENTS  SETA  &NRENTS+1                                                17215042
&TEMP    SETA  &ISHIFT                                                  17270042
A&SYSNDX DC    AL.12(&LOGITEM-&DSECT),XL.4'&TEMP'                       17325042
         AIF (&IBITS EQ 1 AND &B EQ 0).OUT                              17380042
         ORG   A&SYSNDX                                                 17435042
&B       SETB  1                                                        17490042
         DC    AL.12(&LOGITEM-&DSECT),XL.4'C'                           17545042
         DC    BL.1'&B',AL.7(&T),AL.4(&IBITS),FL.4'&ISHIFT'             17600042
.OUT     ANOP                                                           17655042
         MEND                                                           17710042
         EJECT                                                          17765042
*  HEX MACRO     HEX MACRO     HEX MACRO    HEXN MACRO     HEX MACRO  * 17820042
         SPACE 2                                                        17875042
         MACRO                                                          17930042
         HEX   &LOGITEM,&SKIP$OR,&BYTES                                 17985042
.*                            THIS MACRO FACILITATES GENERATION OF THE  18040042
.*                                 TABLE ENTRIES SPECIFYING HEX TYPE    18095042
.*                                 CONVERSIONS.                         18150042
.*                            &LOGITEM - NAME OF DATA ITEM TO BE        18205042
.*                                 CONVERTED                            18260042
.*                            &SKIP$OR - NUMBER OF SPACES TO SKIP ON    18315042
.*                                 MULTIPLE PRINT OR NBR OF SPACES TO   18370042
.*                                 BACK UP FROM COLUMN FOR START OF     18425042
.*                                 PRINTING. THE LETTER B PRECEEDS THE  18480042
.*                                 NUMBER (B8) IF THE LATTER OPTION IS  18535042
.*                                 DESIRED. OMISSION OF THIS OPERAND    18590042
.*                                 FORCES OPTION 2 WITH BACKUP SPACING  18645042
.*                                 EQUAL TO THE NUMBER OF BYTES SPECI-  18700042
.*                                 FIED BY THE NEXT OPERAND (TWICE THIS 18755042
.*                                 NUMBER IF SUFFIX IS EXPLICITLY OR    18810042
.*                                 IMPLICITLY B).                       18865042
.*                            &BYTES - NUMBER OF TOTAL INPUT BYTES TO   18920042
.*                                 PROCESS. THIS NUMBER IS SUFFIXED     18975042
.*                                 WITH AN L,R, OR B TO STIPULATE       19030042
.*                                 PRINTING OF THE LEFT HALF, RIGHT     19085042
.*                                 HALF, OR BOTH HALVES OF THE BYTE     19140042
.*                                 RESPECTIVELY. OMISSION OF THIS       19195042
.*                                 OPERAND DEFAULTS TO B WITH THE NUM-  19250042
.*                                 BER OF BYTES EQUAL TO THE ITEM LNGTH 19305042
.*                            A NEW ENTRY IS GENERATED ONLY WHEN NECES- 19360042
.*                                 SARY. THIS MACRO MUST BE THE FIRST   19415042
.*                                 MACRO INSTRUCTION ISSUED FOR THE     19470042
.*                                 SUBJECT LINE(S).                     19525042
         GBLC &ITEM(1000),&DSECT                                        19580042
         GBLA &ITEMNBR,&BITS(1000),&SHIFT(1000),&NRENTS                 19635042
         LCLB  &B                                                       19690042
         LCLA  &IBITS,&NDX,&ISHIFT,&K,&T,&CODE,&BYTESP                  19745042
         LCLC  &S,&LETTER                                               19800042
.LOOP    ANOP                                                           19855042
&NDX     SETA  &NDX+1                                                   19910042
         AIF   ('&ITEM(&NDX)' EQ '&LOGITEM').FOUND                      19965042
         AIF   (&NDX LT &ITEMNBR).LOOP                                  20020042
         MNOTE *,'LOG ITEM NOT DEFINED'                                 20075042