         SPACE 2                                                        00050042
*  LINE MACRO     LINE MACRO     LINE MACRO     LINE MACRO            * 00100042
         MACRO                                                          00150042
&NAME    LINE  &DATA,&LABEL,&SKIP=                                      00200042
.*                            THIS MACRO ESTABLISHES THE MARGINS OR     00250042
.*                                 COLUMN SETTINGS FOR EACH LINE. IT    00300042
.*                                 GENERATES NECESSARY CARRIAGE CONTROL 00350042
.*                                 ENTRIES. LASTLY IT DETERMINES THE    00400042
.*                                 NUMBER OF ENTRIES ASSOCIATED WITH    00450042
.*                                 THE PREVIOUS LINE AND STORES THAT #  00500042
.*                                 INTO THE APPROPRIATE BYTE.           00550042
.*                            &DATA(1) - CHARACTER POSITION TO BEGIN    00600042
.*                                 DATA.                                00650042
.*                            &DATA(2) - # OF SPACES BETWEEN SUCCESSIVE 00700042
.*                                 DATA COLUMN STARTING CHARACTERS.     00750042
.*                            &LABEL(1) - CHAR. POS. TO BEGIN LABELS.   00800042
.*                            &LABEL(2) - # SPACES BETWEEN LINE'S LABEL 00850042
.*                                 STARTING CHARACTERS.                 00900042
.*                            &SKIP= - # OF LINES TO ADVANCE CARRIAGE   00950042
.*                                 TO BEGIN NEXT PRINTED LINE.          01000042
.*                            NEW ENTRIES ARE GENERATED ONLY WHEN       01050042
.*                                 NECESSARY. OMISSION OF ITEMS MEANS   01100042
.*                                 THEY HAVE NOT CHANGED SINCE PREVIOUS 01150042
.*                                 SETTINGS. A LINE MACRO IS REQUIRED   01200042
.*                                 FOR EACH PRINTED LINE. IF NO SETTING 01250042
.*                                 CHANGES ARE REQUIRED ALL OPERANDS    01300042
.*                                 ARE OMITTED IN WHICH CASE ONLY THE   01350042
.*                                 # OF ENTRIES FOR THE PREVIOUS LINE   01400042
.*                                 IS COMPUTED. THIS MACRO MUST BE THE  01450042
.*                                 FIRST MACRO INSTRUCTION ISSUED FOR   01500042
.*                                 THE SUBJECT LINE                     01550042
         GBLA  &DB,&DT,&LB,&LT,&NRENTS                                  01600042
         GBLA  &LASTCC,&INITIAL                                         01650042
         GBLC  &NRENTSX                                                 01700042
         GBLC  &CARRCON                                                 01750042
         GBLB  &TEST                                                    01800042
         LCLA  &S                                                       01850042
&NAME    DS    0C                                                       01900042
         AIF   (&INITIAL EQ 0).FIRSTLN                                  01950042
         LINEND                                                         02000042
         AGO   .NTFIRST                                                 02050042
.FIRSTLN ANOP                                                           02100042
&NRENTSX SETC  'N&SYSNDX'                                               02150042
&INITIAL SETA  1                                                        02200042
N&SYSNDX EQU   *                                                        02250042
.NTFIRST ANOP                                                           02300042
         DC    AL1(0)                                                   02350042
         AIF   ('&DATA(1)' EQ '').CKDTABS                               02400042
         AIF   (&DATA(1) EQ &DB).CKDTABS                                02450042
&DB      SETA  &DATA(1)                                                 02500042
         AGO   .AA                                                      02550042
.CKDTABS AIF   ('&DATA(2)' EQ '').NCDATA                                02600042
         AIF   (&DATA(2) EQ &DT).NCDATA                                 02650042
         AGO   .CC                                                      02700042
.AA      AIF   ('&DATA(2)' EQ '').BB                                    02750042
         AIF   (&DATA(2) EQ &DT).BB                                     02800042
.CC      ANOP                                                           02850042
&DT      SETA  &DATA(2)                                                 02900042
.BB      DC    XL2'FFFE'                                                02950042
         DC    FL1'&DB'                                                 03000042
         DC    FL1'&DT'                                                 03050042
&NRENTS  SETA  &NRENTS+1                                                03100042
.NCDATA  ANOP                                                           03150042
         AIF   ('&LABEL(1)' EQ '').CKLTABS                              03200042
         AIF   (&LABEL(1) EQ &LB).CKLTABS                               03250042
&LB      SETA  &LABEL(1)                                                03300042
         AGO   .AAA                                                     03350042
.CKLTABS AIF   ('&LABEL(2)' EQ '').NCLABEL                              03400042
         AIF   (&LABEL(2) EQ &LT).NCLABEL                               03450042
         AGO   .CCC                                                     03500042
.AAA     AIF   ('&LABEL(2)' EQ '').BBB                                  03550042
         AIF   (&LABEL(2) EQ &LT).BBB                                   03600042
.CCC     ANOP                                                           03650042
&LT      SETA  &LABEL(2)                                                03700042
.BBB     DC    XL2'FFFF'                                                03750042
         DC    FL1'&LB'                                                 03800042
         DC    FL1'&LT'                                                 03850042
&NRENTS  SETA  &NRENTS+1                                                03900042
.NCLABEL ANOP                                                           03950042
         AIF   ('&SKIP' NE '').CONT                                     04000042
         AIF   (&TEST EQ 0).NOCHANG                                     04050042
&S       SETA  &LASTCC                                                  04100042
         AGO   .DEFAULT                                                 04150042
.CONT    ANOP                                                           04200042
         AIF   (&TEST EQ 0).AB                                          04250042
&S       SETA  &SKIP                                                    04300042
.DEFAULT ANOP                                                           04350042
         ORG   &CARRCON+3                                               04400042
         DC    AL.3(0),AL.2(&S),AL.3(1)                                 04450042
         ORG                                                            04500042
&LASTCC  SETA  &S                                                       04550042
&TEST    SETB  0                                                        04600042
         AGO   .DD                                                      04650042
.AB      AIF   (&SKIP EQ &LASTCC).NOCHANG                               04700042
A&SYSNDX DC    XL2'FFFB'                                                04750042
         DC    AL.3(0),AL.2(&SKIP),AL.3(1)                              04800042
         DC    FL1'9'                                                   04850042
&LASTCC  SETA  &SKIP                                                    04900042
&TEST    SETB  1                                                        04950042
&CARRCON SETC  'A&SYSNDX'                                               05000042
&NRENTS  SETA  &NRENTS+1                                                05050042
.DD      ANOP                                                           05100042
.NOCHANG ANOP                                                           05150042
         MEND                                                           05200042
         EJECT                                                          05250042
         SPACE 2                                                        05300042
*  ROUTINE MACRO     ROUTINE MACRO     ROUTINE MACRO     ROUTINE MACRO* 05350042
         MACRO                                                          05400042
&NAME    ROUTINE &LOGITEM,&RNAME                                        05450042
         GBLC  &DSECT,&CSECT                                            05500042
         GBLC  &ITEM(1000)                                              05550042
         GBLA  &SHIFT(1000),&ITEMNBR                                    05600042
         GBLA  &NRENTS                                                  05650042
         LCLA  &ISHIFT,&NDX                                             05700042
.LOOP    ANOP                                                           05750042
&NDX     SETA  &NDX+1                                                   05800042
         AIF   ('&ITEM(&NDX)' EQ '&LOGITEM').FOUND                      05850042
         AIF   (&NDX LT &ITEMNBR).LOOP                                  05900042
         MNOTE *,'LOG ITEM NOT DEFINED'                                 05950042
         MEXIT                                                          06000042
.FOUND   ANOP                                                           06050042
&ISHIFT  SETA  &SHIFT(&NDX)                                             06100042
&NAME    DC    AL.12(&LOGITEM-&DSECT),XL.4'D'                           06150042
         DC    AL.4(&ISHIFT),AL.12(&RNAME-&CSECT)                       06200042
&NRENTS  SETA  &NRENTS+1                                                06250042
         MEND                                                           06300042
*  DSGEN MACRO     DSGEN MACRO     DSGEN MACRO     DSGEN MACRO        * 06350042
         SPACE 2                                                        06400042
         MACRO                                                          06450042
&NAME    DSGEN                                                          06470042
.*                            THIS MACRO GENERATES ONE DSECT WORD       06490042
.*                                 FORMATTED FOR THE SUBJECT LOG RECORD 06510042
.*                                 EACH OPERAND HAS TWO SUB LISTS. THE  06530042
.*                                 FIRST IS THE NAME OF THE LOG ITEM    06550042
.*                                 WHILE THE SECOND IS THE # OF BITS TO 06570042
.*                                 ALLOCATE FOR THIS ITEM. ITEMS MUST   06590042
.*                                 BE DEFINED CONTIGUOUSLY WITHOUT GAPS 06610042
.*                                 UNUSED BIT GROUPS MUST BE GIVEN      06630042
.*                                 DUMMY NAMES. THE NAMES PROVIDED FOR  06650042
.*                                 THE LOG ITEMS MAY THEN BE USED IN    06670042
.*                                 THE CONVERSION MACRO INSTRUCTIONS.   06690042
         GBLC &ITEM(1000)                                               06710042
         GBLA &ITEMNBR,&BITS(1000),&SHIFT(1000)                         06730042
         LCLB  &ONLY1,&CTIND                                            06750042
         LCLA  &START1,&START2,&END1,&END2                              06770042
         LCLC  &SYMBOL,&EQUSYM                                          06790042
         LCLA  &OP,&COUNT,&BYTE,&EQUCNT                                 06810042
         ACTR  100000                                                   06830042
.START   AIF   (N'&SYSLIST(&OP+1) LT 3).LOOP                            06850042
         AIF   ('&SYSLIST(&OP+1,3)' EQ 'EQU').LOOP     TEST FOR EQU     06870042
  AIF   ('&SYSLIST(&OP+1,3)' EQ '' AND '&SYSLIST(&OP+1,4)' EQ '').ERR1  06890042
  AIF   ('&SYSLIST(&OP+1,3)' EQ '' OR '&SYSLIST(&OP+1,4)' EQ '').ERR1   06910042
         AIF   ('&SYSLIST(&OP+1,3)' GT '&SYSLIST(&OP+1,4)').ERR3        06930042
&START1  SETA  &SYSLIST(&OP+1,3)        GET START COUNT OF 1            06950042
&START2  SETA  &SYSLIST(&OP+1,4)        GET FIRST END COUNT             06970042
         AGO   .SET2A                   BRANCH AROUND                   06990042
.ERR1    MNOTE '**FIRST SYMBOL CONCATENATION INCOMPLETE**'              07010042
         MEXIT                                                          07030042
.SET2A   AIF   ('&SYSLIST(&OP+1,5)' EQ ''AND '&SYSLIST(&OP+1,6)' EQ '' X07050042
               ).SET2                   TEST FOR NO SECOND              07070042
  AIF   ('&SYSLIST(&OP+1,5)' EQ '' OR '&SYSLIST(&OP+1,6)' EQ '').ERR2   07090042
         AIF   ('&SYSLIST(&OP+1,5)' GT '&SYSLIST(&OP+1,6)').ERR3        07110042
&END1    SETA  &SYSLIST(&OP+1,5)        GET START COUNT OF 2            07130042
&END2    SETA  &SYSLIST(&OP+1,6)        GET END COUNT OF 2              07150042
         AGO   .LOOP                                                    07170042
.SET2    ANOP                                                           07190042
&ONLY1   SETB  1                        INDICATE ONLY ONE CONCATENATION 07210042
         AGO   .LOOP                                                    07230042
.ERR2    MNOTE '**SECOND SYMBOL CONCATENATION INCOMPLETE**'             07250042
         MEXIT                                                          07270042
.ERR3    MNOTE '**START GREATER THAN END CONCATENATION**'               07290042
         MEXIT                                                          07310042
.LOOP    ANOP                                                           07330042
&OP      SETA  &OP+1                                                    07350042
         AIF   (&OP GT N'&SYSLIST).DONE      TEST IF ALL DONE           07370042
&ITEMNBR SETA  &ITEMNBR+1                                               07390042
         AIF   ('&SYSLIST(&OP,2)' NE '').OK1                            07410042
         MNOTE '**NULL BIT COUNT FIELD**'                               07430042
         MEXIT                                                          07450042
.OK1     ANOP                                                           07470042
&SYMBOL  SETC  '&SYSLIST(&OP,1)'                                        07490042
         AIF   ('&SYMBOL' NE '').OK                                     07510042
*              *****     LOG ITEM SYMBOL NOT PROVIDED     *****         07530042
         AIF   ('&SYSLIST(&OP,3)' NE 'EQU').CNT                         07550042
         AGO   .START                   GET NEXT                        07570042
.OK      AIF   (N'&SYSLIST(&OP) LT 3).NO3    TEST FOR OLD FORMAT        07590042
         AIF   ('&SYSLIST(&OP,3)' EQ 'EQU').EQU   TEST FOR EQU          07610042
         AIF   (&ONLY1).OK2             TEST FOR ONLY ONE CONCAT        07630042
&SYMBOL  SETC  '&SYMBOL.&START1.&END1'       GET 1 AND 2 CONCAT         07650042
         AGO   .NO3                     BRANCH AROUND                   07670042
.OK2     ANOP                                                           07690042
&SYMBOL  SETC  '&SYMBOL.&START1'        GET 1 CONCATENATED              07710042
.NO3     ANOP                                                           07730042
&SYMBOL  EQU   *+&BYTE                                                  07750042
&ITEM(&ITEMNBR) SETC '&SYMBOL'          GET LABEL IN GLOBAL             07770042
&BITS(&ITEMNBR) SETA &SYSLIST(&OP,2)                                    07790042
&SHIFT(&ITEMNBR) SETA &COUNT-&BYTE*8                                    07810042
.CNT     ANOP                                                           07830042
&CTIND   SETB  1                        SET COUNT INDICATOR             07850042
&COUNT   SETA  &COUNT+&SYSLIST(&OP,2)                                   07870042
&BYTE    SETA  &COUNT/8                                                 07890042
         AIF   (N'&SYSLIST(&OP) LT 3).START  TEST FOR OLD FORMAT        07910042
         AIF   (&ONLY1).TSTST           TEST FOR ONLY ONE CONCAT        07930042
         AIF   (&END1 EQ &END2).TSTST   TEST FOR SECOND END             07950042
&END1    SETA  &END1+1                  INCREMENT COUNT                 07970042
&OP      SETA  &OP-1                    DECREMENT INCREMENT             07990042
         AGO   .LOOP                    GENERATE NEXT                   08010042
.TSTST   ANOP                                                           08030042
         AIF   (&START1 EQ &START2).LPDONE   TEST FOR END               08050042
         AIF   (&ONLY1).NSET1           TEST FOR ONLY ONE CONCAT        08070042
&END1    SETA  &SYSLIST(&OP,5)          RE-INIT SECOND START COUNT      08090042
.NSET1   ANOP                                                           08110042
&OP      SETA  &OP-1                    DECREMENT INDEX                 08130042
&START1  SETA  &START1+1                INCREMENT FIRST COUNT           08150042
         AGO   .LOOP                    GO DO NEXT                      08170042
.LPDONE  ANOP                                                           08190042
&ONLY1   SETB  0                        CLEAR INDICATOR                 08210042
         AGO   .START                   GO TEST FOR MORE SUB-LISTS      08230042
.DONE    AIF   (&COUNT-&COUNT/8*8 NE 0).ERR  TEST FOR MULTIPLE OF EIGHT 08250042
         AIF   (&CTIND EQ 0).END        NO DS IF NO COUNT               08270042
&COUNT   SETA  &COUNT/8                 GET NUMBER OF BYTES             08290042
&NAME    DS    &COUNT.C                                                 08310042
.END     MEXIT                                                          08330042
.ERR     MNOTE '**BIT COUNT FLDS DO NOT TOTAL MULTIPLE OF 8**'          08350042
         MEXIT                                                          08370042
.EQU     AIF   ('&SYSLIST(&OP,4)' NE '').EQU1     TEST FOR NULL LABEL   08390042
.ERR4    MNOTE '**EQU OPERAND OMITTED OR NOT FOUND**'                   08410042
         MEXIT                                                          08430042
.EQU1    AIF   (&SYSLIST(&OP,2) LT 16).EQU2  COUNT OVER FIFTEEN         08450042
*****               THE FOLLOWING STATEMENT                *****        08470042
*****     NUMBER OF BITS EXCEED 15 - DO NOT USE AS BIN     *****        08490042
.EQU2    ANOP                                                           08510042
&EQUCNT  SETA  0                        CLEAR COUNTER                   08530042
&EQUSYM  SETC  '&SYSLIST(&OP,4)'        GET EQU OPERAND                 08550042
.EQULOP  ANOP                                                           08570042
&EQUCNT  SETA  &EQUCNT+1                INCREMENT INDEX                 08590042
         AIF   ('&ITEM(&EQUCNT)' EQ '&EQUSYM').EQUOUT  LABEL FOUND?     08610042
         AIF   (&EQUCNT EQ &ITEMNBR).ERR4    ALL TESTED?                08630042
         AGO   .EQULOP                  NO-GET NEXT                     08650042
.EQUOUT  ANOP                                                           08670042
&ITEM(&ITEMNBR) SETC '&SYMBOL'          GET LABEL NAME                  08690042
&BITS(&ITEMNBR) SETA &SYSLIST(&OP,2)    GET NUMBER OF BITS              08710042
&SHIFT(&ITEMNBR) SETA &SHIFT(&EQUCNT)   GET SHIFT COUNT                 08730042
&SYMBOL  EQU   &EQUSYM                  THIS SYMBOL EQUATED             08750042
         AGO   .START                   RETURN FOR NEXT                 08770042
         MEND                                                           08790042
         MACRO                                                          08850042
         LINEND                                                         08900042
.*                            THIS MACRO IS USED ONLY BY THE LINE       08950042
.*                                 MACRO TO SET THE NUMBER OF ENTRIES   09000042
.*                                 ASSOCIATED WITH EACH LINE.           09050042
         GBLA  &NRENTS                                                  09100042
         GBLC &NRENTSX                                                  09150042
         ORG   &NRENTSX                                                 09200042
         DC    FL1'&NRENTS'                                             09250042
         ORG                                                            09300042
&NRENTS  SETA  0                                                        09350042
B&SYSNDX EQU   *                                                        09400042
&NRENTSX SETC  'B&SYSNDX'                                               09450042
         MEND                                                           09500042
         SPACE 2                                                        09550042
         EJECT                                                          09600042
*  LABEL MACRO     LABEL MACRO     LABEL MACRO     LABEL MACRO        * 09650042
         SPACE 2                                                        09700042
         MACRO                                                          09750042
&NAME    LABEL &LABEL1,&LABEL2,&LABEL3,&LABEL4,&LABEL5,&LABEL6,        C09800042
               &LABEL7,&LABEL8                                          09850042
.*                            THIS MACRO ALLOWS UP TO ACHT LABELS TO    09900042
.*                                 BE SPECIFIED FOR A GIVEN LINE. THE   09950042
.*                                 LABELS SHOULD BE ENCLOSED IN QUOTA-  10000042
.*                                 TION MARKS. THE COLUMN AND LINE END  10050042
.*                                 CONTROLS WILL BE INSERTED BY THE     10100042
.*                                 MACRO. OMITTED OPERANDS MEAN NO      10150042
.*                                 LABEL REQUIRED FOR RESPECTIVE        10200042
.*                                 COLUMN. THIS MACRO WILL ALSO ALERT   10250042
.*                                 THE PROGRAMMER TO EXACTLY WHERE THE  10300042
.*                                 TABLE MUST BE BROKEN IF NECESSARY    10350042
.*                                 TO AVOID EXCEEDING THE MAXIMUM LIMIT 10400042
         GBLC &LABELS(2000)                                             10450042
         GBLC  &LBL(100)                                                10500042
         GBLA  &LBLCTR(100)                                             10550042
         GBLA  &LABELNR                                                 10600042
         GBLA  &NRENTS,&LPTR                                            10650042
         LCLC  &MARGIN,&TACK                                            10700042
         LCLC  &TEXT                                                    10750042
         LCLA  &OP,&K,&START,&NRCHAR,&REMAIN                            10800042
&MARGIN  SETC  '*'                                                      10850042
         AIF   ('&NAME' EQ '').LOOPOUT                                  10900042
&LPTR    SETA  &LPTR+1                                                  10950042
&LBL(&LPTR) SETC '&NAME'                                                11000042
&LBLCTR(&LPTR) SETA &LABELNR+1                                          11050042
.LOOPOUT ANOP                                                           11100042
&OP      SETA  &OP+1                                                    11150042
&K       SETA  K'&SYSLIST(&OP)                                          11200042
         AIF (&K GE 2).NORM                                             11250042
&K       SETA  2                                                        11300042
.NORM    ANOP                                                           11350042
&START   SETA  2                                                        11400042
         AIF (&OP LT N'&SYSLIST).NOTLAST                                11450042
&MARGIN  SETC  '$'                                                      11500042
.NOTLAST ANOP                                                           11550042
&NRCHAR  SETA  8                                                        11600042
&TACK    SETC  ''                                                       11650042
.LOOPIN  ANOP                                                           11700042
&REMAIN  SETA  &K-&START                                                11750042
         AIF (&REMAIN GE 8).MORE                                        11800042
&TACK    SETC  '&MARGIN'                                                11850042
&NRCHAR  SETA  &REMAIN                                                  11900042
.MORE    ANOP                                                           11950042
&TEXT    SETC  ''                                                       12000042
         AIF (&REMAIN EQ 0).ENDTEXT                                     12050042
&TEXT    SETC  '&SYSLIST(&OP)'(&START,&NRCHAR)                          12100042
.ENDTEXT ANOP                                                           12150042
&LABELNR SETA  &LABELNR+1                                               12200042
&LABELS(&LABELNR) SETC '&TEXT'.'&TACK'                                  12250042
&START   SETA  &START+8                                                 12300042
         AIF ('&TACK' EQ '').LOOPIN                                     12350042
         AIF ('&TACK' EQ '*').LOOPOUT                                   12400042
         MEND                                                           12450042
         SPACE 2                                                        12500042
         MACRO                                                          12550042
         LSTART                                                         12600042
.*                            THIS MACRO IS ISSUED WHEN THE LABEL AREA  12650042
.*                                 OF THE TABLE IS TO BEGIN.            12700042
         GBLC &LABELS(2000)                                             12750042
         GBLA  &LABELNR                                                 12800042
         GBLC  &LBL(100)                                                12850042
         GBLA  &LBLCTR(100)                                             12900042
         LCLA  &NDX,&CTR                                                12950042
         LINEND                                                         13000042
&CTR     SETA  1                                                        13050042
.LOOP    ANOP                                                           13100042
&NDX     SETA  &NDX+1                                                   13150042
         AIF   (&LBLCTR(&CTR) NE &NDX).NOLBL                            13200042
&LBL(&CTR) DC  C'&LABELS(&NDX)'                                         13250042
&CTR     SETA  &CTR+1                                                   13300042
         AGO   .LOOPCTL                                                 13350042
.NOLBL   ANOP                                                           13400042
         DC    C'&LABELS(&NDX)'                                         13450042
.LOOPCTL AIF   (&NDX LT &LABELNR).LOOP                                  13500042
         MEND                                                           13550042
         SPACE 2                                                        13600042
*  BIN MACRO     BIN MACRO     BIN MACRO     BIN MACRO     BIN MACRO  * 13650042
         SPACE 2                                                        13700042
         MACRO                                                          13750042
         BIN   &LOGITEM,&SKIP$OR                                        13800042
.*                                 &LOGITEM - NAME OF ITEM IN LOG       13850042
.*                                      RECORD DSECT                    13900042
.*                                 &SKIP$OR - NBR OF SPACES TO SKIP ON  13950042
.*                                 MULTIPLE PRINT OR NBR OF SPACES      14000042
.*                                      TO BACK UP FROM COLUMN FOR      14050042
.*                                      START OF PRINTING. THE LETTER   14100042
.*                                      B PRECEEDS THE NUMBER (B5) IF   14150042
.*                                      THE LATTER IS DESIRED. OMISSION 14200042
.*                                      OF THIS OPERAND FORCES OPTION 2 14250042
.*                                      WITH BACKUP SPACING EQUAL TO    14300042
.*                                 THE NUMBER OF BITS IN THE ITEM       14350042
.*                                 DEFINITION (VIA MACRO 'DSGEN').      14400042
.*                            A LIMIT OF 15 BITS IS IMPOSED FOR THE     14450042
.*                                 TOTAL NUMBER OF BITS TO PRINT.       14500042
         GBLC &ITEM(1000)                                               14550042
         GBLA &ITEMNBR,&BITS(1000),&SHIFT(1000),&NRENTS                 14600042
         GBLC  &DSECT                                                   14650042
         LCLB  &B                                                       14700042
         LCLA  &IBITS,&NDX,&ISHIFT,&K                                   14750042