         TITLE 'IFCS2880 - SUM TABLE - LINKNAME=IFCS2880'               00080020
         TITLE '****  2880C SUMMARY  ****'                              00160020
         MACRO                                                          00240020
&NAME    DSGEN &X1,&X2,&X3,&X4,&X5,&X6,&X7,&X8,&X9,&X10,&X11,&X12,&X13,X00320020
               &X14,&X15,&X16,&X17,&X18,&X19,&X20,&X21,&X22,&X23,&X24, X00400020
               &X25,&X26,&X27,&X28,&X29,&X30,&X31,&X32                  00480020
.*                            THIS MACRO GENERATES ONE DSECT WORD       00560020
.*                                 FORMATTED FOR THE SUBJECT LOG RECORD 00640020
.*                                 EACH OPERAND HAS TWO SUB LISTS. THE  00720020
.*                                 FIRST IS THE NAME OF THE LOG ITEM    00800020
.*                                 WHILE THE SECOND IS THE # OF BITS TO 00880020
.*                                 ALLOCATE FOR THIS ITEM. ITEMS MUST   00960020
.*                                 BE DEFINED CONTIGUOUSLY WITHOUT GAPS 01040020
.*                                 UNUSED BIT GROUPS MUST BE GIVEN      01120020
.*                                 DUMMY NAMES. THE NAMES PROVIDED FOR  01200020
.*                                 THE LOG ITEMS MAY THEN BE USED IN    01280020
.*                                 THE CONVERSION MACRO INSTRUCTIONS.   01360020
         GBLC &ITEM(1000)                                               01440020
         GBLA &ITEMNBR,&BITS(1000),&SHIFT(1000)                         01520020
         LCLC  &SYMBOL                                                  01600020
         LCLA  &OP,&COUNT,&BYTE                                         01680020
.LOOP    ANOP                                                           01760020
&OP      SETA  &OP+1                                                    01840020
&ITEMNBR SETA  &ITEMNBR+1                                               01920020
&SYMBOL  SETC  '&SYSLIST(&OP,1)'                                        02000020
         AIF   ('&SYSLIST(&OP,2)' NE '').OK1                            02080020
         MNOTE *,'NULL BIT COUNT FIELD'                                 02160020
         MEXIT                                                          02240020
.OK1     ANOP                                                           02320020
         AIF   ('&SYMBOL' NE '').OK                                     02400020
         MNOTE 'LOG ITEM SYMBOL NOT PROVIDED'                           02480020
         AGO   .CNT                                                     02560020
.OK      ANOP                                                           02640020
         AIF   ('&SYMBOL'(1,1) EQ '''').CNT                *TEMP*       02720020
&SYMBOL  EQU   *+&BYTE                                                  02800020
&ITEM(&ITEMNBR)  SETC '&SYSLIST(&OP,1)'                                 02880020
&BITS(&ITEMNBR) SETA &SYSLIST(&OP,2)                                    02960020
&SHIFT(&ITEMNBR) SETA &COUNT-&BYTE*8                                    03040020
.CNT     ANOP                                                           03120020
&COUNT   SETA  &COUNT+&SYSLIST(&OP,2)                                   03200020
&BYTE    SETA  &COUNT/8                                                 03280020
         AIF (&OP LT N'&SYSLIST).LOOP                                   03360020
         AIF   (&COUNT NE 32).NOT32                                     03440020
&NAME    DS    4C                                                       03520020
         MEXIT                                                          03600020
.NOT32   AIF   (&COUNT NE 64).ERR                                       03680020
&NAME    DS    8C                                                       03760020
         MEXIT                                                          03840020
.ERR     MNOTE '**BIT COUNT FIELDS DO NOT TOTAL 32 OR 64**'             03920020
         MEND                                                           04000020
         EJECT                                                          04080020
         MACRO                                                          04160020
&NAME    LINE  &DATA,&LABEL,&SKIP=                                      04240020
.*                            THIS MACRO ESTABLISHES THE MARGINS OR     04320020
.*                                 COLUMN SETTINGS FOR EACH LINE. IT    04400020
.*                                 GENERATES NECESSARY CARRIAGE CONTROL 04480020
.*                                 ENTRIES. LASTLY IT DETERMINES THE    04560020
.*                                 NUMBER OF ENTRIES ASSOCIATED WITH    04640020
.*                                 THE PREVIOUS LINE AND STORES THAT #  04720020
.*                                 INTO THE APPROPRIATE BYTE.           04800020
.*                            &DATA(1) - CHARACTER POSITION TO BEGIN    04880020
.*                                 DATA.                                04960020
.*                            &DATA(2) - # OF SPACES BETWEEN SUCCESSIVE 05040020
.*                                 DATA COLUMN STARTING CHARACTERS.     05120020
.*                            &LABEL(1) - CHAR. POS. TO BEGIN LABELS.   05200020
.*                            &LABEL(2) - # SPACES BETWEEN LINE'S LABEL 05280020
.*                                 STARTING CHARACTERS.                 05360020
.*                            &SKIP= - # OF LINES TO ADVANCE CARRIAGE   05440020
.*                                 TO BEGIN NEXT PRINTED LINE.          05520020
.*                            NEW ENTRIES ARE GENERATED ONLY WHEN       05600020
.*                                 NECESSARY. OMISSION OF ITEMS MEANS   05680020
.*                                 THEY HAVE NOT CHANGED SINCE PREVIOUS 05760020
.*                                 SETTINGS. A LINE MACRO IS REQUIRED   05840020
.*                                 FOR EACH PRINTED LINE. IF NO SETTING 05920020
.*                                 CHANGES ARE REQUIRED ALL OPERANDS    06000020
.*                                 ARE OMITTED IN WHICH CASE ONLY THE   06080020
.*                                 # OF ENTRIES FOR THE PREVIOUS LINE   06160020
.*                                 IS COMPUTED. THIS MACRO MUST BE THE  06240020
.*                                 FIRST MACRO INSTRUCTION ISSUED FOR   06320020
.*                                 THE SUBJECT LINE                     06400020
         GBLA  &DB,&DT,&LB,&LT,&NRENTS                                  06480020
         GBLA  &LASTCC,&INITIAL                                         06560020
         GBLC  &NRENTSX                                                 06640020
         GBLC  &CARRCON                                                 06720020
         GBLB  &TEST                                                    06800020
         LCLA  &S                                                       06880020
&NAME    DS    0C                                                       06960020
         AIF   (&INITIAL EQ 0).FIRSTLN                                  07040020
         LINEND                                                         07120020
         AGO   .NTFIRST                                                 07200020
.FIRSTLN ANOP                                                           07280020
&NRENTSX SETC  'N&SYSNDX'                                               07360020
&INITIAL SETA  1                                                        07440020
N&SYSNDX EQU   *                                                        07520020
.NTFIRST ANOP                                                           07600020
         DC    AL1(0)                                                   07680020
         AIF   ('&DATA(1)' EQ '').CKDTABS                               07760020
         AIF   (&DATA(1) EQ &DB).CKDTABS                                07840020
&DB      SETA  &DATA(1)                                                 07920020
         AGO   .AA                                                      08000020
.CKDTABS AIF   ('&DATA(2)' EQ '').NCDATA                                08080020
         AIF   (&DATA(2) EQ &DT).NCDATA                                 08160020
         AGO   .CC                                                      08240020
.AA      AIF   ('&DATA(2)' EQ '').BB                                    08320020
         AIF   (&DATA(2) EQ &DT).BB                                     08400020
.CC      ANOP                                                           08480020
&DT      SETA  &DATA(2)                                                 08560020
.BB      DC    XL2'FFFE'                                                08640020
         DC    FL1'&DB'                                                 08720020
         DC    FL1'&DT'                                                 08800020
&NRENTS  SETA  &NRENTS+1                                                08880020
.NCDATA  ANOP                                                           08960020
         AIF   ('&LABEL(1)' EQ '').CKLTABS                              09040020
         AIF   (&LABEL(1) EQ &LB).CKLTABS                               09120020
&LB      SETA  &LABEL(1)                                                09200020
         AGO   .AAA                                                     09280020
.CKLTABS AIF   ('&LABEL(2)' EQ '').NCLABEL                              09360020
         AIF   (&LABEL(2) EQ &LT).NCLABEL                               09440020
         AGO   .CCC                                                     09520020
.AAA     AIF   ('&LABEL(2)' EQ '').BBB                                  09600020
         AIF   (&LABEL(2) EQ &LT).BBB                                   09680020
.CCC     ANOP                                                           09760020
&LT      SETA  &LABEL(2)                                                09840020
.BBB     DC    XL2'FFFF'                                                09920020
         DC    FL1'&LB'                                                 10000020
         DC    FL1'&LT'                                                 10080020
&NRENTS  SETA  &NRENTS+1                                                10160020
.NCLABEL ANOP                                                           10240020
         AIF   ('&SKIP' NE '').CONT                                     10320020
         AIF   (&TEST EQ 0).NOCHANG                                     10400020
&S       SETA  &LASTCC                                                  10480020
         AGO   .DEFAULT                                                 10560020
.CONT    ANOP                                                           10640020
         AIF   (&TEST EQ 0).AB                                          10720020
&S       SETA  &SKIP                                                    10800020
.DEFAULT ANOP                                                           10880020
         ORG   &CARRCON+3                                               10960020
         DC    AL.3(0),AL.2(&S),AL.3(1)                                 11040020
         ORG                                                            11120020
&LASTCC  SETA  &S                                                       11200020
&TEST    SETB  0                                                        11280020
         AGO   .DD                                                      11360020
.AB      AIF   (&SKIP EQ &LASTCC).NOCHANG                               11440020
A&SYSNDX DC    XL2'FFFB'                                                11520020
         DC    AL.3(0),AL.2(&SKIP),AL.3(1)                              11600020
         DC    FL1'9'                                                   11680020
&LASTCC  SETA  &SKIP                                                    11760020
&TEST    SETB  1                                                        11840020
&CARRCON SETC  'A&SYSNDX'                                               11920020
&NRENTS  SETA  &NRENTS+1                                                12000020
.DD      ANOP                                                           12080020
.NOCHANG ANOP                                                           12160020
         MEND                                                           12240020
         MACRO                                                          12320020
&NAME    ROUTINE &LOGITEM,&RNAME                                        12400020
         GBLA  &NRENTS                                                  12480020
         GBLC  &DSECT,&CSECT                                            12560020
&NAME    DC    AL.12(&LOGITEM-&DSECT),XL.4'D'                           12640020
         DC    AL2(&RNAME-&CSECT)                                       12720020
&NRENTS  SETA  &NRENTS+1                                                12800020
         MEND                                                           12880020
         EJECT                                                          12960020
         MACRO                                                          13040020
         LABEL &LABEL1,&LABEL2,&LABEL3,&LABEL4                          13120020
.*                            THIS MACRO ALLOWS UP TO FOUR LABELS TO    13200020
.*                                 BE SPECIFIED FOR A GIVEN LINE. THE   13280020
.*                                 LABELS SHOULD BE ENCLOSED IN QUOTA-  13360020
.*                                 TION MARKS. THE COLUMN AND LINE END  13440020
.*                                 CONTROLS WILL BE INSERTED BY THE     13520020
.*                                 MACRO. OMITTED OPERANDS MEAN NO      13600020
.*                                 LABEL REQUIRED FOR RESPECTIVE        13680020
.*                                 COLUMN. THIS MACRO WILL ALSO ALERT   13760020
.*                                 THE PROGRAMMER TO EXACTLY WHERE THE  13840020
.*                                 TABLE MUST BE BROKEN IF NECESSARY    13920020
.*                                 TO AVOID EXCEEDING THE MAXIMUM LIMIT 14000020
         GBLC &LABELS(1000)                                             14080020
         GBLA  &LABELNR                                                 14160020
         GBLA  &NRENTS                                                  14240020
         LCLC  &MARGIN,&TACK                                            14320020
         LCLC  &TEXT                                                    14400020
         LCLA  &OP,&K,&START,&NRCHAR,&REMAIN                            14480020
&MARGIN  SETC  '*'                                                      14560020
.LOOPOUT ANOP                                                           14640020
&OP      SETA  &OP+1                                                    14720020
&K       SETA  K'&SYSLIST(&OP)                                          14800020
         AIF (&K GE 2).NORM                                             14880020
&K       SETA  2                                                        14960020
.NORM    ANOP                                                           15040020
&START   SETA  2                                                        15120020
         AIF (&OP LT N'&SYSLIST).NOTLAST                                15200020
&MARGIN  SETC  '$'                                                      15280020
.NOTLAST ANOP                                                           15360020
&NRCHAR  SETA  8                                                        15440020
&TACK    SETC  ''                                                       15520020
.LOOPIN  ANOP                                                           15600020
&REMAIN  SETA  &K-&START                                                15680020
         AIF (&REMAIN GE 8).MORE                                        15760020
&TACK    SETC  '&MARGIN'                                                15840020
&NRCHAR  SETA  &REMAIN                                                  15920020
.MORE    ANOP                                                           16000020
&TEXT    SETC  ''                                                       16080020
         AIF (&REMAIN EQ 0).ENDTEXT                                     16160020
&TEXT    SETC  '&SYSLIST(&OP)'(&START,&NRCHAR)                          16240020
.ENDTEXT ANOP                                                           16320020
&LABELNR SETA  &LABELNR+1                                               16400020
&LABELS(&LABELNR) SETC '&TEXT'.'&TACK'                                  16480020
&START   SETA  &START+8                                                 16560020
         AIF ('&TACK' EQ '').LOOPIN                                     16640020
         AIF ('&TACK' EQ '*').LOOPOUT                                   16720020
         MEND                                                           16800020
         MACRO                                                          16880020
         LSTART                                                         16960020
.*                            THIS MACRO IS ISSUED WHEN THE LABEL AREA  17040020
.*                                 OF THE TABLE IS TO BEGIN.            17120020
         GBLC &LABELS(1000)                                             17200020
         GBLA  &LABELNR                                                 17280020
         LCLA  &NDX                                                     17360020
         LINEND                                                         17440020
.LOOP    ANOP                                                           17520020
&NDX     SETA  &NDX+1                                                   17600020
         DC    C'&LABELS(&NDX)'                                         17680020
         AIF   (&NDX LT &LABELNR).LOOP                                  17760020
         MEND                                                           17840020
         MACRO                                                          17920020
         LINEND                                                         18000020
.*                            THIS MACRO IS USED ONLY BY THE LINE       18080020
.*                                 MACRO TO SET THE NUMBER OF ENTRIES   18160020
.*                                 ASSOCIATED WITH EACH LINE.           18240020
         GBLA  &NRENTS                                                  18320020
         GBLC &NRENTSX                                                  18400020
         ORG   &NRENTSX                                                 18480020
         DC    FL1'&NRENTS'                                             18560020
         ORG                                                            18640020
&NRENTS  SETA  0                                                        18720020
B&SYSNDX EQU   *                                                        18800020
&NRENTSX SETC  'B&SYSNDX'                                               18880020
         MEND                                                           18960020
         EJECT                                                          19040020
         MACRO                                                          19120020
         SUM   &LOGITEM,&MASK                                           19200020
.*                            THIS MACRO GENERATES A NORMAL EDIT ENTRY  19280020
.*                                 FOR PROCESSING BY THE SUMMARY MODULE 19360020
.*                            &LOGITEM - NAME OF DATA ITEM TO BE SUMMED 19440020
.*                            &MASK - BYTE MASK FOR BITS TO BE TESTED.  19520020
.*                                 THIS OPERAND SHOULD BE OMITTED FOR   19600020
.*                                 SINGLE BIT ITEMS IN WHICH CASE THE   19680020
.*                                 MASK WILL BE SET ACCORDING TO THE    19760020
.*                                 OFF BYTE BIT DISPLACEMENT OF THE     19840020
.*                                 ITEM AS DEFINED BY THE MACRO 'DSGEN' 19920020
         GBLA  &COUNTR,&ITEMNBR,&BITS(1000),&SHIFT(1000)                20000020
         GBLC  &ITEM(1000),&DSECT                                       20080020
         LCLA  &IBITS,&NDX,&ISHIFT,&M,&BITNBR                           20160020
.LOOP    ANOP                                                           20240020
&NDX     SETA  &NDX+1                                                   20320020
         AIF   ('&ITEM(&NDX)' EQ '&LOGITEM').FOUND                      20400020
         AIF   (&NDX LT &ITEMNBR).LOOP                                  20480020
         MNOTE *,'LOGITEM NOT FOUND'                                    20560020
         MEXIT                                                          20640020
.FOUND   ANOP                                                           20720020
         DC    AL1(0)                                                   20800020
&ISHIFT  SETA  &SHIFT(&NDX)                                             20880020
&IBITS   SETA  &BITS(&NDX)                                              20960020
         AIF   ('&MASK' EQ '').FORM                                     21040020
         DC    B'&MASK'                                                 21120020
         AGO   .ITEM                                                    21200020
.FORM    ANOP                                                           21280020
&BITNBR  SETA  &ISHIFT-7                                                21360020
&BITNBR  SETA  0-&BITNBR                                                21440020
&M       SETA  1                                                        21520020
.LOOP2   ANOP                                                           21600020
         AIF   (&BITNBR EQ 0).GOTIT                                     21680020
&M       SETA  &M*2                                                     21760020
&BITNBR  SETA  &BITNBR-1                                                21840020
         AGO   .LOOP2                                                   21920020
.GOTIT   ANOP                                                           22000020
         DC    AL1(&M)                                                  22080020
.ITEM    DC    AL2(&LOGITEM-&DSECT)                                     22160020
         DC    AL2(&COUNTR)                                             22240020
&COUNTR  SETA  &COUNTR+1                                                22320020
         MEND                                                           22400020
         MACRO                                                          22480020
         SPECIAL &ROUTINE,&PARAM,&SPACE=                                22560020
.*                            THIS MACRO GENERATES A SPECIAL ROUTINE    22640020
.*                                 ENTRY TO BE PROCESSED BY THE SUM. M. 22720020
.*                            &ROUTINE - SYMBOL ON SPECIAL ROUTINE EWT. 22800020
.*                            &PARAM - AN 8 BIT BINARY REPRESENTATION   22880020
.*                                 TO OCCUPY THE 'MASK' FIELD BUT TO BE 22960020
.*                                 INTERPRETED AS AN ARGUMENT OF THE    23040020
.*                                 SPECIAL ROUTINE.                     23120020
.*                            &SPACE - THE NUMBER OF 2BYTE COUNTERS TO  23200020
.*                                 ALLOCATE FOR REQUIRED PROCESSING.    23280020
         GBLC  &CSECT                                                   23360020
         GBLA  &COUNTR                                                  23440020
         LCLA  &ADD                                                     23520020
         DC    AL1(128)                                                 23600020
         DC    BL.8'&PARAM'                                             23680020
         DC    AL2(&ROUTINE-&CSECT)                                     23760020
         DC    AL2(&COUNTR)                                             23840020
&ADD     SETA  1                                                        23920020
         AIF   ('&SPACE' EQ '').NORM                                    24000020
&ADD     SETA  &SPACE                                                   24080020
.NORM    ANOP                                                           24160020
&COUNTR  SETA  &COUNTR+&ADD                                             24240020
         MEND                                                           24320020
         EJECT                                                          24400020
*  HEX MACRO     HEX MACRO     HEX MACRO    HEXN MACRO     HEX MACRO  * 24480020
         SPACE 2                                                        24560020
         MACRO                                                          24640020
         HEX   &LOGITEM,&SKIP$OR,&BYTES                                 24720020
.*                            THIS MACRO FACILITATES GENERATION OF THE  24800020
.*                                 TABLE ENTRIES SPECIFYING HEX TYPE    24880020
.*                                 CONVERSIONS.                         24960020
.*                            &LOGITEM - NAME OF DATA ITEM TO BE        25040020
.*                                 CONVERTED                            25120020
.*                            &SKIP$OR - NUMBER OF SPACES TO SKIP ON    25200020
.*                                 MULTIPLE PRINT OR NBR OF SPACES TO   25280020
.*                                 BACK UP FROM COLUMN FOR START OF     25360020
.*                                 PRINTING. THE LETTER B PRECEEDS THE  25440020
.*                                 NUMBER (B8) IF THE LATTER OPTION IS  25520020
.*                                 DESIRED. OMISSION OF THIS OPERAND    25600020
.*                                 FORCES OPTION 2 WITH BACKUP SPACING  25680020
.*                                 EQUAL TO THE NUMBER OF BYTES SPECI-  25760020
.*                                 FIED BY THE NEXT OPERAND (TWICE THIS 25840020
.*                                 NUMBER IF SUFFIX IS EXPLICITLY OR    25920020
.*                                 IMPLICITLY B).                       26000020
.*                            &BYTES - NUMBER OF TOTAL INPUT BYTES TO   26080020
.*                                 PROCESS. THIS NUMBER IS SUFFIXED     26160020
.*                                 WITH AN L,R, OR B TO STIPULATE       26240020
.*                                 PRINTING OF THE LEFT HALF, RIGHT     26320020
.*                                 HALF, OR BOTH HALVES OF THE BYTE     26400020
.*                                 RESPECTIVELY. OMISSION OF THIS       26480020
.*                                 OPERAND DEFAULTS TO B WITH THE NUM-  26560020
.*                                 BER OF BYTES EQUAL TO THE ITEM LNGTH 26640020
.*                            A NEW ENTRY IS GENERATED ONLY WHEN NECES- 26720020
.*                                 SARY. THIS MACRO MUST BE THE FIRST   26800020
.*                                 MACRO INSTRUCTION ISSUED FOR THE     26880020
.*                                 SUBJECT LINE(S).                     26960020
         GBLC &ITEM(1000),&DSECT                                        27040020
         GBLA &ITEMNBR,&BITS(1000),&SHIFT(1000),&NRENTS                 27120020
         LCLB  &B                                                       27200020
         LCLA  &IBITS,&NDX,&ISHIFT,&K,&T,&CODE,&BYTESP                  27280020
         LCLC  &S,&LETTER                                               27360020
.LOOP    ANOP                                                           27440020
&NDX     SETA  &NDX+1                                                   27520020
         AIF   ('&ITEM(&NDX)' EQ '&LOGITEM').FOUND                      27600020
         AIF   (&NDX LT &ITEMNBR).LOOP                                  27680020
         MNOTE *,'LOG ITEM NOT DEFINED'                                 27760020
         MEXIT                                                          27840020
.FOUND   ANOP                                                           27920020
&ISHIFT  SETA  &SHIFT(&NDX)                                             28000020
&IBITS   SETA  &BITS(&NDX)                                              28080020
&CODE    SETA  1                                                        28160020
&K       SETA  K'&BYTES                                                 28240020
         AIF   (&IBITS-(&IBITS/4)*4 EQ 0).OK                            28320020
         MNOTE *,'BIT LENGTH SPECIFICATION INCONSISTENT WITH CONTROL'   28400020
         MEXIT                                                          28480020
.OK      AIF   ('&BYTES' EQ '').USEDEFN                                 28560020
&LETTER  SETC  '&BYTES'(&K,1)                                           28640020
&S       SETC  '&BYTES'(1,&K-1)                                         28720020
&BYTESP  SETA  &S                                                       28800020
         AIF   ('&LETTER' EQ 'B').BOTH                                  28880020
         AIF   (&ISHIFT EQ 0 OR &ISHIFT EQ 4).OK2                       28960020
.ERR     MNOTE *,'DATA NOT ALLIGNED ON HEX OR BYTE BOUNDARY'            29040020
         MEXIT                                                          29120020
.USEDEFN ANOP                                                           29200020