         TITLE 'IFCS2870 - SUM TABLE - LINKNAME=IFCS2870'               00090020
         TITLE '****  2870 CHANNEL SUM  ****'                           00180020
*  DSGEN MACRO     DSGEN MACRO     DSGEN MACRO     DSGEN MACRO        * 00270020
         SPACE 2                                                        00360020
         MACRO                                                          00450020
&NAME    DSGEN &X1,&X2,&X3,&X4,&X5,&X6,&X7,&X8,&X9,&X10,&X11,&X12,&X13,X00540020
               &X14,&X15,&X16,&X17,&X18,&X19,&X20,&X21,&X22,&X23,&X24, X00630020
               &X25,&X26,&X27,&X28,&X29,&X30,&X31,&X32                  00720020
.*                            THIS MACRO GENERATES ONE DSECT WORD       00810020
.*                                 FORMATTED FOR THE SUBJECT LOG RECORD 00900020
.*                                 EACH OPERAND HAS TWO SUB LISTS. THE  00990020
.*                                 FIRST IS THE NAME OF THE LOG ITEM    01080020
.*                                 WHILE THE SECOND IS THE # OF BITS TO 01170020
.*                                 ALLOCATE FOR THIS ITEM. ITEMS MUST   01260020
.*                                 BE DEFINED CONTIGUOUSLY WITHOUT GAPS 01350020
.*                                 UNUSED BIT GROUPS MUST BE GIVEN      01440020
.*                                 DUMMY NAMES. THE NAMES PROVIDED FOR  01530020
.*                                 THE LOG ITEMS MAY THEN BE USED IN    01620020
.*                                 THE CONVERSION MACRO INSTRUCTIONS.   01710020
         GBLC &ITEM(1000)                                               01800020
         GBLA &ITEMNBR,&BITS(1000),&SHIFT(1000)                         01890020
         LCLC  &SYMBOL                                                  01980020
         LCLA  &OP,&COUNT,&BYTE                                         02070020
.LOOP    ANOP                                                           02160020
&OP      SETA  &OP+1                                                    02250020
&ITEMNBR SETA  &ITEMNBR+1                                               02340020
&SYMBOL  SETC  '&SYSLIST(&OP,1)'                                        02430020
         AIF   ('&SYSLIST(&OP,2)' NE '').OK1                            02520020
         MNOTE *,'NULL BIT COUNT FIELD'                                 02610020
         MEXIT                                                          02700020
.OK1     ANOP                                                           02790020
         AIF   ('&SYMBOL' NE '').OK                                     02880020
         MNOTE 'LOG ITEM SYMBOL NOT PROVIDED'                           02970020
         AGO   .CNT                                                     03060020
.OK      ANOP                                                           03150020
         AIF   ('&SYMBOL'(1,1) EQ '''').CNT                *TEMP*       03240020
&SYMBOL  EQU   *+&BYTE                                                  03330020
&ITEM(&ITEMNBR)  SETC '&SYSLIST(&OP,1)'                                 03420020
&BITS(&ITEMNBR) SETA &SYSLIST(&OP,2)                                    03510020
&SHIFT(&ITEMNBR) SETA &COUNT-&BYTE*8                                    03600020
.CNT     ANOP                                                           03690020
&COUNT   SETA  &COUNT+&SYSLIST(&OP,2)                                   03780020
&BYTE    SETA  &COUNT/8                                                 03870020
         AIF (&OP LT N'&SYSLIST).LOOP                                   03960020
         AIF   (&COUNT NE 32).NOT32                                     04050020
&NAME    DS    4C                                                       04140020
         MEXIT                                                          04230020
.NOT32   AIF   (&COUNT NE 64).ERR                                       04320020
&NAME    DS    8C                                                       04410020
         MEXIT                                                          04500020
.ERR     MNOTE '**BIT COUNT FIELDS DO NOT TOTAL 32 OR 64**'             04590020
         MEND                                                           04680020
         EJECT                                                          04770020
*  LINE MACRO     LINE MACRO     LINE MACRO     LINE MACRO            * 04860020
         SPACE 2                                                        04950020
         MACRO                                                          05040020
&NAME    LINE  &DATA,&LABEL,&SKIP=                                      05130020
.*                            THIS MACRO ESTABLISHES THE MARGINS OR     05220020
.*                                 COLUMN SETTINGS FOR EACH LINE. IT    05310020
.*                                 GENERATES NECESSARY CARRIAGE CONTROL 05400020
.*                                 ENTRIES. LASTLY IT DETERMINES THE    05490020
.*                                 NUMBER OF ENTRIES ASSOCIATED WITH    05580020
.*                                 THE PREVIOUS LINE AND STORES THAT #  05670020
.*                                 INTO THE APPROPRIATE BYTE.           05760020
.*                            &DATA(1) - CHARACTER POSITION TO BEGIN    05850020
.*                                 DATA.                                05940020
.*                            &DATA(2) - # OF SPACES BETWEEN SUCCESSIVE 06030020
.*                                 DATA COLUMN STARTING CHARACTERS.     06120020
.*                            &LABEL(1) - CHAR. POS. TO BEGIN LABELS.   06210020
.*                            &LABEL(2) - # SPACES BETWEEN LINE'S LABEL 06300020
.*                                 STARTING CHARACTERS.                 06390020
.*                            &SKIP= - # OF LINES TO ADVANCE CARRIAGE   06480020
.*                                 TO BEGIN NEXT PRINTED LINE.          06570020
.*                            NEW ENTRIES ARE GENERATED ONLY WHEN       06660020
.*                                 NECESSARY. OMISSION OF ITEMS MEANS   06750020
.*                                 THEY HAVE NOT CHANGED SINCE PREVIOUS 06840020
.*                                 SETTINGS. A LINE MACRO IS REQUIRED   06930020
.*                                 FOR EACH PRINTED LINE. IF NO SETTING 07020020
.*                                 CHANGES ARE REQUIRED ALL OPERANDS    07110020
.*                                 ARE OMITTED IN WHICH CASE ONLY THE   07200020
.*                                 # OF ENTRIES FOR THE PREVIOUS LINE   07290020
.*                                 IS COMPUTED. THIS MACRO MUST BE THE  07380020
.*                                 FIRST MACRO INSTRUCTION ISSUED FOR   07470020
.*                                 THE SUBJECT LINE                     07560020
         GBLA  &DB,&DT,&LB,&LT,&NRENTS                                  07650020
         GBLA  &LASTCC,&INITIAL                                         07740020
         GBLC  &NRENTSX                                                 07830020
         GBLC  &CARRCON                                                 07920020
         GBLB  &TEST                                                    08010020
         LCLA  &S                                                       08100020
&NAME    DS    0C                                                       08190020
         AIF   (&INITIAL EQ 0).FIRSTLN                                  08280020
         LINEND                                                         08370020
         AGO   .NTFIRST                                                 08460020
.FIRSTLN ANOP                                                           08550020
&NRENTSX SETC  'N&SYSNDX'                                               08640020
&INITIAL SETA  1                                                        08730020
N&SYSNDX EQU   *                                                        08820020
.NTFIRST ANOP                                                           08910020
         DC    AL1(0)                                                   09000020
         AIF   ('&DATA(1)' EQ '').CKDTABS                               09090020
         AIF   (&DATA(1) EQ &DB).CKDTABS                                09180020
&DB      SETA  &DATA(1)                                                 09270020
         AGO   .AA                                                      09360020
.CKDTABS AIF   ('&DATA(2)' EQ '').NCDATA                                09450020
         AIF   (&DATA(2) EQ &DT).NCDATA                                 09540020
         AGO   .CC                                                      09630020
.AA      AIF   ('&DATA(2)' EQ '').BB                                    09720020
         AIF   (&DATA(2) EQ &DT).BB                                     09810020
.CC      ANOP                                                           09900020
&DT      SETA  &DATA(2)                                                 09990020
.BB      DC    XL2'FFFE'                                                10080020
         DC    FL1'&DB'                                                 10170020
         DC    FL1'&DT'                                                 10260020
&NRENTS  SETA  &NRENTS+1                                                10350020
.NCDATA  ANOP                                                           10440020
         AIF   ('&LABEL(1)' EQ '').CKLTABS                              10530020
         AIF   (&LABEL(1) EQ &LB).CKLTABS                               10620020
&LB      SETA  &LABEL(1)                                                10710020
         AGO   .AAA                                                     10800020
.CKLTABS AIF   ('&LABEL(2)' EQ '').NCLABEL                              10890020
         AIF   (&LABEL(2) EQ &LT).NCLABEL                               10980020
         AGO   .CCC                                                     11070020
.AAA     AIF   ('&LABEL(2)' EQ '').BBB                                  11160020
         AIF   (&LABEL(2) EQ &LT).BBB                                   11250020
.CCC     ANOP                                                           11340020
&LT      SETA  &LABEL(2)                                                11430020
.BBB     DC    XL2'FFFF'                                                11520020
         DC    FL1'&LB'                                                 11610020
         DC    FL1'&LT'                                                 11700020
&NRENTS  SETA  &NRENTS+1                                                11790020
.NCLABEL ANOP                                                           11880020
         AIF   ('&SKIP' NE '').CONT                                     11970020
         AIF   (&TEST EQ 0).NOCHANG                                     12060020
&S       SETA  &LASTCC                                                  12150020
         AGO   .DEFAULT                                                 12240020
.CONT    ANOP                                                           12330020
         AIF   (&TEST EQ 0).AB                                          12420020
&S       SETA  &SKIP                                                    12510020
.DEFAULT ANOP                                                           12600020
         ORG   &CARRCON+3                                               12690020
         DC    AL.3(0),AL.2(&S),AL.3(1)                                 12780020
         ORG                                                            12870020
&LASTCC  SETA  &S                                                       12960020
&TEST    SETB  0                                                        13050020
         AGO   .DD                                                      13140020
.AB      AIF   (&SKIP EQ &LASTCC).NOCHANG                               13230020
A&SYSNDX DC    XL2'FFFB'                                                13320020
         DC    AL.3(0),AL.2(&SKIP),AL.3(1)                              13410020
         DC    FL1'9'                                                   13500020
&LASTCC  SETA  &SKIP                                                    13590020
&TEST    SETB  1                                                        13680020
&CARRCON SETC  'A&SYSNDX'                                               13770020
&NRENTS  SETA  &NRENTS+1                                                13860020
.DD      ANOP                                                           13950020
.NOCHANG ANOP                                                           14040020
         MEND                                                           14130020
         EJECT                                                          14220020
*  ROUTINE MACRO     ROUTINE MACRO     ROUTINE MACRO     ROUTINE MACRO* 14310020
         SPACE 2                                                        14400020
         MACRO                                                          14490020
&NAME    ROUTINE &LOGITEM,&RNAME                                        14580020
         GBLA  &NRENTS                                                  14670020
         GBLC  &DSECT,&CSECT                                            14760020
&NAME    DC    AL.12(&LOGITEM-&DSECT),XL.4'D'                           14850020
         DC    AL2(&RNAME-&CSECT)                                       14940020
&NRENTS  SETA  &NRENTS+1                                                15030020
         MEND                                                           15120020
         EJECT                                                          15210020
*  LABEL MACRO     LABEL MACRO     LABEL MACRO     LABEL MACRO        * 15300020
         SPACE 2                                                        15390020
         MACRO                                                          15480020
         LABEL &LABEL1,&LABEL2,&LABEL3,&LABEL4                          15570020
.*                            THIS MACRO ALLOWS UP TO FOUR LABELS TO    15660020
.*                                 BE SPECIFIED FOR A GIVEN LINE. THE   15750020
.*                                 LABELS SHOULD BE ENCLOSED IN QUOTA-  15840020
.*                                 TION MARKS. THE COLUMN AND LINE END  15930020
.*                                 CONTROLS WILL BE INSERTED BY THE     16020020
.*                                 MACRO. OMITTED OPERANDS MEAN NO      16110020
.*                                 LABEL REQUIRED FOR RESPECTIVE        16200020
.*                                 COLUMN. THIS MACRO WILL ALSO ALERT   16290020
.*                                 THE PROGRAMMER TO EXACTLY WHERE THE  16380020
.*                                 TABLE MUST BE BROKEN IF NECESSARY    16470020
.*                                 TO AVOID EXCEEDING THE MAXIMUM LIMIT 16560020
         GBLC &LABELS(1000)                                             16650020
         GBLA  &LABELNR                                                 16740020
         GBLA  &NRENTS                                                  16830020
         LCLC  &MARGIN,&TACK                                            16920020
         LCLC  &TEXT                                                    17010020
         LCLA  &OP,&K,&START,&NRCHAR,&REMAIN                            17100020
&MARGIN  SETC  '*'                                                      17190020
.LOOPOUT ANOP                                                           17280020
&OP      SETA  &OP+1                                                    17370020
&K       SETA  K'&SYSLIST(&OP)                                          17460020
         AIF (&K GE 2).NORM                                             17550020
&K       SETA  2                                                        17640020
.NORM    ANOP                                                           17730020
&START   SETA  2                                                        17820020
         AIF (&OP LT N'&SYSLIST).NOTLAST                                17910020
&MARGIN  SETC  '$'                                                      18000020
.NOTLAST ANOP                                                           18090020
&NRCHAR  SETA  8                                                        18180020
&TACK    SETC  ''                                                       18270020
.LOOPIN  ANOP                                                           18360020
&REMAIN  SETA  &K-&START                                                18450020
         AIF (&REMAIN GE 8).MORE                                        18540020
&TACK    SETC  '&MARGIN'                                                18630020
&NRCHAR  SETA  &REMAIN                                                  18720020
.MORE    ANOP                                                           18810020
&TEXT    SETC  ''                                                       18900020
         AIF (&REMAIN EQ 0).ENDTEXT                                     18990020
&TEXT    SETC  '&SYSLIST(&OP)'(&START,&NRCHAR)                          19080020
.ENDTEXT ANOP                                                           19170020
&LABELNR SETA  &LABELNR+1                                               19260020
&LABELS(&LABELNR) SETC '&TEXT'.'&TACK'                                  19350020
&START   SETA  &START+8                                                 19440020
         AIF ('&TACK' EQ '').LOOPIN                                     19530020
         AIF ('&TACK' EQ '*').LOOPOUT                                   19620020
         MEND                                                           19710020
         MACRO                                                          19800020
         LSTART                                                         19890020
.*                            THIS MACRO IS ISSUED WHEN THE LABEL AREA  19980020
.*                                 OF THE TABLE IS TO BEGIN.            20070020
         GBLC &LABELS(1000)                                             20160020
         GBLA  &LABELNR                                                 20250020
         LCLA  &NDX                                                     20340020
         LINEND                                                         20430020
.LOOP    ANOP                                                           20520020
&NDX     SETA  &NDX+1                                                   20610020
         DC    C'&LABELS(&NDX)'                                         20700020
         AIF   (&NDX LT &LABELNR).LOOP                                  20790020
         MEND                                                           20880020
         MACRO                                                          20970020
         LINEND                                                         21060020
.*                            THIS MACRO IS USED ONLY BY THE LINE       21150020
.*                                 MACRO TO SET THE NUMBER OF ENTRIES   21240020
.*                                 ASSOCIATED WITH EACH LINE.           21330020
         GBLA  &NRENTS                                                  21420020
         GBLC &NRENTSX                                                  21510020
         ORG   &NRENTSX                                                 21600020
         DC    FL1'&NRENTS'                                             21690020
         ORG                                                            21780020
&NRENTS  SETA  0                                                        21870020
B&SYSNDX EQU   *                                                        21960020
&NRENTSX SETC  'B&SYSNDX'                                               22050020
         MEND                                                           22140020
         SPACE 2                                                        22230020
         MACRO                                                          22320020
         SUM   &LOGITEM,&MASK                                           22410020
.*                            THIS MACRO GENERATES A NORMAL EDIT ENTRY  22500020
.*                                 FOR PROCESSING BY THE SUMMARY MODULE 22590020
.*                            &LOGITEM - NAME OF DATA ITEM TO BE SUMMED 22680020
.*                            &MASK - BYTE MASK FOR BITS TO BE TESTED.  22770020
.*                                 THIS OPERAND SHOULD BE OMITTED FOR   22860020
.*                                 SINGLE BIT ITEMS IN WHICH CASE THE   22950020
.*                                 MASK WILL BE SET ACCORDING TO THE    23040020
.*                                 OFF BYTE BIT DISPLACEMENT OF THE     23130020
.*                                 ITEM AS DEFINED BY THE MACRO 'DSGEN' 23220020
         GBLA  &COUNTR,&ITEMNBR,&BITS(1000),&SHIFT(1000)                23310020
         GBLC  &ITEM(1000),&DSECT                                       23400020
         LCLA  &IBITS,&NDX,&ISHIFT,&M,&BITNBR                           23490020
.LOOP    ANOP                                                           23580020
&NDX     SETA  &NDX+1                                                   23670020
         AIF   ('&ITEM(&NDX)' EQ '&LOGITEM').FOUND                      23760020
         AIF   (&NDX LT &ITEMNBR).LOOP                                  23850020
         MNOTE *,'LOGITEM NOT FOUND'                                    23940020
         MEXIT                                                          24030020
.FOUND   ANOP                                                           24120020
         DC    AL1(0)                                                   24210020
&ISHIFT  SETA  &SHIFT(&NDX)                                             24300020
&IBITS   SETA  &BITS(&NDX)                                              24390020
         AIF   ('&MASK' EQ '').FORM                                     24480020
         DC    B'&MASK'                                                 24570020
         AGO   .ITEM                                                    24660020
.FORM    ANOP                                                           24750020
&BITNBR  SETA  &ISHIFT-7                                                24840020
&BITNBR  SETA  0-&BITNBR                                                24930020
&M       SETA  1                                                        25020020
.LOOP2   ANOP                                                           25110020
         AIF   (&BITNBR EQ 0).GOTIT                                     25200020
&M       SETA  &M*2                                                     25290020
&BITNBR  SETA  &BITNBR-1                                                25380020
         AGO   .LOOP2                                                   25470020
.GOTIT   ANOP                                                           25560020
         DC    AL1(&M)                                                  25650020
.ITEM    DC    AL2(&LOGITEM-&DSECT)                                     25740020
         DC    AL2(&COUNTR)                                             25830020
&COUNTR  SETA  &COUNTR+1                                                25920020
         MEND                                                           26010020
         MACRO                                                          26100020
         SPECIAL &ROUTINE,&PARAM,&SPACE=                                26190020
.*                            THIS MACRO GENERATES A SPECIAL ROUTINE    26280020
.*                                 ENTRY TO BE PROCESSED BY THE SUM. M. 26370020
.*                            &ROUTINE - SYMBOL ON SPECIAL ROUTINE EWT. 26460020
.*                            &PARAM - AN 8 BIT BINARY REPRESENTATION   26550020
.*                                 TO OCCUPY THE 'MASK' FIELD BUT TO BE 26640020
.*                                 INTERPRETED AS AN ARGUMENT OF THE    26730020
.*                                 SPECIAL ROUTINE.                     26820020
.*                            &SPACE - THE NUMBER OF 2BYTE COUNTERS TO  26910020
.*                                 ALLOCATE FOR REQUIRED PROCESSING.    27000020
         GBLC  &CSECT                                                   27090020
         GBLA  &COUNTR                                                  27180020
         LCLA  &ADD                                                     27270020
         DC    AL1(128)                                                 27360020
         DC    BL.8'&PARAM'                                             27450020
         DC    AL2(&ROUTINE-&CSECT)                                     27540020
         DC    AL2(&COUNTR)                                             27630020
&ADD     SETA  1                                                        27720020
         AIF   ('&SPACE' EQ '').NORM                                    27810020
&ADD     SETA  &SPACE                                                   27900020
.NORM    ANOP                                                           27990020
&COUNTR  SETA  &COUNTR+&ADD                                             28080020
         MEND                                                           28170020
         EJECT                                                          28260020
*  HEX MACRO     HEX MACRO     HEX MACRO    HEXN MACRO     HEX MACRO  * 28350020
         SPACE 2                                                        28440020
         MACRO                                                          28530020
         HEX   &LOGITEM,&SKIP$OR,&BYTES                                 28620020
.*                            THIS MACRO FACILITATES GENERATION OF THE  28710020
.*                                 TABLE ENTRIES SPECIFYING HEX TYPE    28800020
.*                                 CONVERSIONS.                         28890020
.*                            &LOGITEM - NAME OF DATA ITEM TO BE        28980020
.*                                 CONVERTED                            29070020
.*                            &SKIP$OR - NUMBER OF SPACES TO SKIP ON    29160020
.*                                 MULTIPLE PRINT OR NBR OF SPACES TO   29250020
.*                                 BACK UP FROM COLUMN FOR START OF     29340020
.*                                 PRINTING. THE LETTER B PRECEEDS THE  29430020
.*                                 NUMBER (B8) IF THE LATTER OPTION IS  29520020
.*                                 DESIRED. OMISSION OF THIS OPERAND    29610020
.*                                 FORCES OPTION 2 WITH BACKUP SPACING  29700020
.*                                 EQUAL TO THE NUMBER OF BYTES SPECI-  29790020
.*                                 FIED BY THE NEXT OPERAND (TWICE THIS 29880020
.*                                 NUMBER IF SUFFIX IS EXPLICITLY OR    29970020
.*                                 IMPLICITLY B).                       30060020
.*                            &BYTES - NUMBER OF TOTAL INPUT BYTES TO   30150020
.*                                 PROCESS. THIS NUMBER IS SUFFIXED     30240020
.*                                 WITH AN L,R, OR B TO STIPULATE       30330020
.*                                 PRINTING OF THE LEFT HALF, RIGHT     30420020
.*                                 HALF, OR BOTH HALVES OF THE BYTE     30510020
.*                                 RESPECTIVELY. OMISSION OF THIS       30600020
.*                                 OPERAND DEFAULTS TO B WITH THE NUM-  30690020
.*                                 BER OF BYTES EQUAL TO THE ITEM LNGTH 30780020
.*                            A NEW ENTRY IS GENERATED ONLY WHEN NECES- 30870020
.*                                 SARY. THIS MACRO MUST BE THE FIRST   30960020
.*                                 MACRO INSTRUCTION ISSUED FOR THE     31050020
.*                                 SUBJECT LINE(S).                     31140020
         GBLC &ITEM(1000),&DSECT                                        31230020
         GBLA &ITEMNBR,&BITS(1000),&SHIFT(1000),&NRENTS                 31320020
         LCLB  &B                                                       31410020
         LCLA  &IBITS,&NDX,&ISHIFT,&K,&T,&CODE,&BYTESP                  31500020
         LCLC  &S,&LETTER                                               31590020
.LOOP    ANOP                                                           31680020
&NDX     SETA  &NDX+1                                                   31770020
         AIF   ('&ITEM(&NDX)' EQ '&LOGITEM').FOUND                      31860020
         AIF   (&NDX LT &ITEMNBR).LOOP                                  31950020
         MNOTE *,'LOG ITEM NOT DEFINED'                                 32040020
         MEXIT                                                          32130020
.FOUND   ANOP                                                           32220020
&ISHIFT  SETA  &SHIFT(&NDX)                                             32310020
&IBITS   SETA  &BITS(&NDX)                                              32400020
&CODE    SETA  1                                                        32490020
&K       SETA  K'&BYTES                                                 32580020
         AIF   (&IBITS-(&IBITS/4)*4 EQ 0).OK                            32670020
         MNOTE *,'BIT LENGTH SPECIFICATION INCONSISTENT WITH CONTROL'   32760020
         MEXIT                                                          32850020