         TITLE 'IFCSCUA1  MES DATA SUMMARY BY CUA WITH THRESHOLD'       00090042
*                                  THIS MODULE IS INCLUDE AS   @Z40NIVS 00180042
*                                  PART OF THE DASDI/TAPE EREP @Z40NIVS 00270042
*                                  ENHANCEMENTS.               @Z40NIVS 00360042
*                                                              @Z40NIVS 00450042
         MACRO                                                          00540042
&NAME    DSGEN                                                          00630042
.*                            THIS MACRO GENERATES ONE DSECT WORD       00720042
.*                                 FORMATTED FOR THE SUBJECT LOG RECORD 00810042
.*                                 EACH OPERAND HAS TWO SUB LISTS. THE  00900042
.*                                 FIRST IS THE NAME OF THE LOG ITEM    00990042
.*                                 WHILE THE SECOND IS THE # OF BITS TO 01080042
.*                                 ALLOCATE FOR THIS ITEM. ITEMS MUST   01170042
.*                                 BE DEFINED CONTIGUOUSLY WITHOUT GAPS 01260042
.*                                 UNUSED BIT GROUPS MUST BE GIVEN      01350042
.*                                 DUMMY NAMES. THE NAMES PROVIDED FOR  01440042
.*                                 THE LOG ITEMS MAY THEN BE USED IN    01530042
.*                                 THE CONVERSION MACRO INSTRUCTIONS.   01620042
         GBLC &ITEM(1000)                                               01710042
         GBLA &ITEMNBR,&BITS(1000),&SHIFT(1000)                         01800042
         LCLB  &ONLY1,&CTIND                                            01890042
         LCLA  &START1,&START2,&END1,&END2                              01980042
         LCLC  &SYMBOL,&EQUSYM                                          02070042
         LCLA  &OP,&COUNT,&BYTE,&EQUCNT                                 02160042
         ACTR  100000                                                   02250042
.START   AIF   (N'&SYSLIST(&OP+1) LT 3).LOOP                            02340042
         AIF   ('&SYSLIST(&OP+1,3)' EQ 'EQU').LOOP     TEST FOR EQU     02430042
  AIF   ('&SYSLIST(&OP+1,3)' EQ '' AND '&SYSLIST(&OP+1,4)' EQ '').ERR1  02520042
  AIF   ('&SYSLIST(&OP+1,3)' EQ '' OR '&SYSLIST(&OP+1,4)' EQ '').ERR1   02610042
         AIF   ('&SYSLIST(&OP+1,3)' GT '&SYSLIST(&OP+1,4)').ERR3        02700042
&START1  SETA  &SYSLIST(&OP+1,3)        GET START COUNT OF 1            02790042
&START2  SETA  &SYSLIST(&OP+1,4)        GET FIRST END COUNT             02880042
         AGO   .SET2A                   BRANCH AROUND                   02970042
.ERR1    MNOTE '**FIRST SYMBOL CONCATENATION INCOMPLETE**'              03060042
         MEXIT                                                          03150042
.SET2A   AIF   ('&SYSLIST(&OP+1,5)' EQ ''AND '&SYSLIST(&OP+1,6)' EQ '' X03240042
               ).SET2                   TEST FOR NO SECOND              03330042
  AIF   ('&SYSLIST(&OP+1,5)' EQ '' OR '&SYSLIST(&OP+1,6)' EQ '').ERR2   03420042
         AIF   ('&SYSLIST(&OP+1,5)' GT '&SYSLIST(&OP+1,6)').ERR3        03510042
&END1    SETA  &SYSLIST(&OP+1,5)        GET START COUNT OF 2            03600042
&END2    SETA  &SYSLIST(&OP+1,6)        GET END COUNT OF 2              03690042
         AGO   .LOOP                                                    03780042
.SET2    ANOP                                                           03870042
&ONLY1   SETB  1                        INDICATE ONLY ONE CONCATENATION 03960042
         AGO   .LOOP                                                    04050042
.ERR2    MNOTE '**SECOND SYMBOL CONCATENATION INCOMPLETE**'             04140042
         MEXIT                                                          04230042
.ERR3    MNOTE '**START GREATER THAN END CONCATENATION**'               04320042
         MEXIT                                                          04410042
.LOOP    ANOP                                                           04500042
&OP      SETA  &OP+1                                                    04590042
         AIF   (&OP GT N'&SYSLIST).DONE      TEST IF ALL DONE           04680042
&ITEMNBR SETA  &ITEMNBR+1                                               04770042
         AIF   ('&SYSLIST(&OP,2)' NE '').OK1                            04860042
         MNOTE '**NULL BIT COUNT FIELD**'                               04950042
         MEXIT                                                          05040042
.OK1     ANOP                                                           05130042
&SYMBOL  SETC  '&SYSLIST(&OP,1)'                                        05220042
         AIF   ('&SYMBOL' NE '').OK                                     05310042
*              *****     LOG ITEM SYMBOL NOT PROVIDED     *****         05400042
         AIF   ('&SYSLIST(&OP,3)' NE 'EQU').CNT                         05490042
         AGO   .START                   GET NEXT                        05580042
.OK      AIF   (N'&SYSLIST(&OP) LT 3).NO3    TEST FOR OLD FORMAT        05670042
         AIF   ('&SYSLIST(&OP,3)' EQ 'EQU').EQU   TEST FOR EQU          05760042
         AIF   (&ONLY1).OK2             TEST FOR ONLY ONE CONCAT        05850042
&SYMBOL  SETC  '&SYMBOL.&START1.&END1'       GET 1 AND 2 CONCAT         05940042
         AGO   .NO3                     BRANCH AROUND                   06030042
.OK2     ANOP                                                           06120042
&SYMBOL  SETC  '&SYMBOL.&START1'        GET 1 CONCATENATED              06210042
.NO3     ANOP                                                           06300042
&SYMBOL  EQU   *+&BYTE                                                  06390042
&ITEM(&ITEMNBR) SETC '&SYMBOL'          GET LABEL IN GLOBAL             06480042
&BITS(&ITEMNBR) SETA &SYSLIST(&OP,2)                                    06570042
&SHIFT(&ITEMNBR) SETA &COUNT-&BYTE*8                                    06660042
.CNT     ANOP                                                           06750042
&CTIND   SETB  1                        SET COUNT INDICATOR             06840042
&COUNT   SETA  &COUNT+&SYSLIST(&OP,2)                                   06930042
&BYTE    SETA  &COUNT/8                                                 07020042
         AIF   (N'&SYSLIST(&OP) LT 3).START  TEST FOR OLD FORMAT        07110042
         AIF   (&ONLY1).TSTST           TEST FOR ONLY ONE CONCAT        07200042
         AIF   (&END1 EQ &END2).TSTST   TEST FOR SECOND END             07290042
&END1    SETA  &END1+1                  INCREMENT COUNT                 07380042
&OP      SETA  &OP-1                    DECREMENT INCREMENT             07470042
         AGO   .LOOP                    GENERATE NEXT                   07560042
.TSTST   ANOP                                                           07650042
         AIF   (&START1 EQ &START2).LPDONE   TEST FOR END               07740042
         AIF   (&ONLY1).NSET1           TEST FOR ONLY ONE CONCAT        07830042
&END1    SETA  &SYSLIST(&OP,5)          RE-INIT SECOND START COUNT      07920042
.NSET1   ANOP                                                           08010042
&OP      SETA  &OP-1                    DECREMENT INDEX                 08100042
&START1  SETA  &START1+1                INCREMENT FIRST COUNT           08190042
         AGO   .LOOP                    GO DO NEXT                      08280042
.LPDONE  ANOP                                                           08370042
&ONLY1   SETB  0                        CLEAR INDICATOR                 08460042
         AGO   .START                   GO TEST FOR MORE SUB-LISTS      08550042
.DONE    AIF   (&COUNT-&COUNT/8*8 NE 0).ERR  TEST FOR MULTIPLE OF EIGHT 08640042
         AIF   (&CTIND EQ 0).END        NO DS IF NO COUNT               08730042
&COUNT   SETA  &COUNT/8                 GET NUMBER OF BYTES             08820042
&NAME    DS    &COUNT.C                                                 08910042
.END     MEXIT                                                          09000042
.ERR     MNOTE '**BIT COUNT FLDS DO NOT TOTAL MULTIPLE OF 8**'          09090042
         MEXIT                                                          09180042
.EQU     AIF   ('&SYSLIST(&OP,4)' NE '').EQU1     TEST FOR NULL LABEL   09270042
.ERR4    MNOTE '**EQU OPERAND OMITTED OR NOT FOUND**'                   09360042
         MEXIT                                                          09450042
.EQU1    AIF   (&SYSLIST(&OP,2) LT 16).EQU2  COUNT OVER FIFTEEN         09540042
*****               THE FOLLOWING STATEMENT                *****        09630042
*****     NUMBER OF BITS EXCEED 15 - DO NOT USE AS BIN     *****        09720042
.EQU2    ANOP                                                           09810042
&EQUCNT  SETA  0                        CLEAR COUNTER                   09900042
&EQUSYM  SETC  '&SYSLIST(&OP,4)'        GET EQU OPERAND                 09990042
.EQULOP  ANOP                                                           10080042
&EQUCNT  SETA  &EQUCNT+1                INCREMENT INDEX                 10170042
         AIF   ('&ITEM(&EQUCNT)' EQ '&EQUSYM').EQUOUT  LABEL FOUND?     10260042
         AIF   (&EQUCNT EQ &ITEMNBR).ERR3    ALL TESTED?                10350042
         AGO   .EQULOP                  NO-GET NEXT                     10440042
.EQUOUT  ANOP                                                           10530042
&ITEM(&ITEMNBR) SETC '&SYMBOL'          GET LABEL NAME                  10620042
&BITS(&ITEMNBR) SETA &SYSLIST(&OP,2)    GET NUMBER OF BITS              10710042
&SHIFT(&ITEMNBR) SETA &SHIFT(&EQUCNT)   GET SHIFT COUNT                 10800042
&SYMBOL  EQU   &EQUSYM                  THIS SYMBOL EQUATED             10890042
         AGO   .START                   RETURN FOR NEXT                 10980042
         MEND                                                           11070042
*  LINE MACRO     LINE MACRO     LINE MACRO     LINE MACRO            * 11160042
         SPACE 2                                                        11250042
         MACRO                                                          11340042
&NAME    LINE  &DATA,&LABEL,&SKIP=                                      11430042
.*                            THIS MACRO ESTABLISHES THE MARGINS OR     11520042
.*                                 COLUMN SETTINGS FOR EACH LINE. IT    11610042
.*                                 GENERATES NECESSARY CARRIAGE CONTROL 11700042
.*                                 ENTRIES. LASTLY IT DETERMINES THE    11790042
.*                                 NUMBER OF ENTRIES ASSOCIATED WITH    11880042
.*                                 THE PREVIOUS LINE AND STORES THAT #  11970042
.*                                 INTO THE APPROPRIATE BYTE.           12060042
.*                            &DATA(1) - CHARACTER POSITION TO BEGIN    12150042
.*                                 DATA.                                12240042
.*                            &DATA(2) - # OF SPACES BETWEEN SUCCESSIVE 12330042
.*                                 DATA COLUMN STARTING CHARACTERS.     12420042
.*                            &LABEL(1) - CHAR. POS. TO BEGIN LABELS.   12510042
.*                            &LABEL(2) - # SPACES BETWEEN LINE'S LABEL 12600042
.*                                 STARTING CHARACTERS.                 12690042
.*                            &SKIP= - # OF LINES TO ADVANCE CARRIAGE   12780042
.*                                 TO BEGIN NEXT PRINTED LINE.          12870042
.*                            NEW ENTRIES ARE GENERATED ONLY WHEN       12960042
.*                                 NECESSARY. OMISSION OF ITEMS MEANS   13050042
.*                                 THEY HAVE NOT CHANGED SINCE PREVIOUS 13140042
.*                                 SETTINGS. A LINE MACRO IS REQUIRED   13230042
.*                                 FOR EACH PRINTED LINE. IF NO SETTING 13320042
.*                                 CHANGES ARE REQUIRED ALL OPERANDS    13410042
.*                                 ARE OMITTED IN WHICH CASE ONLY THE   13500042
.*                                 # OF ENTRIES FOR THE PREVIOUS LINE   13590042
.*                                 IS COMPUTED. THIS MACRO MUST BE THE  13680042
.*                                 FIRST MACRO INSTRUCTION ISSUED FOR   13770042
.*                                 THE SUBJECT LINE                     13860042
         GBLA  &DB,&DT,&LB,&LT,&NRENTS                                  13950042
         GBLA  &LASTCC,&INITIAL                                         14040042
         GBLC  &NRENTSX                                                 14130042
         GBLC  &CARRCON                                                 14220042
         GBLB  &TEST                                                    14310042
         LCLA  &S                                                       14400042
&NAME    DS    0C                                                       14490042
         AIF   (&INITIAL EQ 0).FIRSTLN                                  14580042
         LINEND                                                         14670042
         AGO   .NTFIRST                                                 14760042
.FIRSTLN ANOP                                                           14850042
&NRENTSX SETC  'N&SYSNDX'                                               14940042
&INITIAL SETA  1                                                        15030042
N&SYSNDX EQU   *                                                        15120042
.NTFIRST ANOP                                                           15210042
         DC    AL1(0)                                                   15300042
         AIF   ('&DATA(1)' EQ '').CKDTABS                               15390042
         AIF   (&DATA(1) EQ &DB).CKDTABS                                15480042
&DB      SETA  &DATA(1)                                                 15570042
         AGO   .AA                                                      15660042
.CKDTABS AIF   ('&DATA(2)' EQ '').NCDATA                                15750042
         AIF   (&DATA(2) EQ &DT).NCDATA                                 15840042
         AGO   .CC                                                      15930042
.AA      AIF   ('&DATA(2)' EQ '').BB                                    16020042
         AIF   (&DATA(2) EQ &DT).BB                                     16110042
.CC      ANOP                                                           16200042
&DT      SETA  &DATA(2)                                                 16290042
.BB      DC    XL2'FFFE'                                                16380042
         DC    FL1'&DB'                                                 16470042
         DC    FL1'&DT'                                                 16560042
&NRENTS  SETA  &NRENTS+1                                                16650042
.NCDATA  ANOP                                                           16740042
         AIF   ('&LABEL(1)' EQ '').CKLTABS                              16830042
         AIF   (&LABEL(1) EQ &LB).CKLTABS                               16920042
&LB      SETA  &LABEL(1)                                                17010042
         AGO   .AAA                                                     17100042
.CKLTABS AIF   ('&LABEL(2)' EQ '').NCLABEL                              17190042
         AIF   (&LABEL(2) EQ &LT).NCLABEL                               17280042
         AGO   .CCC                                                     17370042
.AAA     AIF   ('&LABEL(2)' EQ '').BBB                                  17460042
         AIF   (&LABEL(2) EQ &LT).BBB                                   17550042
.CCC     ANOP                                                           17640042
&LT      SETA  &LABEL(2)                                                17730042
.BBB     DC    XL2'FFFF'                                                17820042
         DC    FL1'&LB'                                                 17910042
         DC    FL1'&LT'                                                 18000042
&NRENTS  SETA  &NRENTS+1                                                18090042
.NCLABEL ANOP                                                           18180042
         AIF   ('&SKIP' NE '').CONT                                     18270042
         AIF   (&TEST EQ 0).NOCHANG                                     18360042
&S       SETA  &LASTCC                                                  18450042
         AGO   .DEFAULT                                                 18540042
.CONT    ANOP                                                           18630042
         AIF   (&TEST EQ 0).AB                                          18720042
&S       SETA  &SKIP                                                    18810042
.DEFAULT ANOP                                                           18900042
         ORG   &CARRCON+3                                               18990042
         DC    AL.3(0),AL.2(&S),AL.3(1)                                 19080042
         ORG                                                            19170042
&LASTCC  SETA  &S                                                       19260042
&TEST    SETB  0                                                        19350042
         AGO   .DD                                                      19440042
.AB      AIF   (&SKIP EQ &LASTCC).NOCHANG                               19530042
A&SYSNDX DC    XL2'FFFB'                                                19620042
         DC    AL.3(0),AL.2(&SKIP),AL.3(1)                              19710042
         DC    FL1'9'                                                   19800042
&LASTCC  SETA  &SKIP                                                    19890042
&TEST    SETB  1                                                        19980042
&CARRCON SETC  'A&SYSNDX'                                               20070042
&NRENTS  SETA  &NRENTS+1                                                20160042
.DD      ANOP                                                           20250042
.NOCHANG ANOP                                                           20340042
         MEND                                                           20430042
         EJECT                                                          20520042
*  BIN MACRO     BIN MACRO     BIN MACRO     BIN MACRO     BIN MACRO  * 20610042
         SPACE 2                                                        20700042
         MACRO                                                          20790042
         BIN   &LOGITEM,&SKIP$OR                                        20880042
.*                                 &LOGITEM - NAME OF ITEM IN LOG       20970042
.*                                      RECORD DSECT                    21060042
.*                                 &SKIP$OR - NBR OF SPACES TO SKIP ON  21150042
.*                                 MULTIPLE PRINT OR NBR OF SPACES      21240042
.*                                      TO BACK UP FROM COLUMN FOR      21330042
.*                                      START OF PRINTING. THE LETTER   21420042
.*                                      B PRECEEDS THE NUMBER (B5) IF   21510042
.*                                      THE LATTER IS DESIRED. OMISSION 21600042
.*                                      OF THIS OPERAND FORCES OPTION 2 21690042
.*                                      WITH BACKUP SPACING EQUAL TO    21780042
.*                                 THE NUMBER OF BITS IN THE ITEM       21870042
.*                                 DEFINITION (VIA MACRO 'DSGEN').      21960042
.*                            A LIMIT OF 15 BITS IS IMPOSED FOR THE     22050042
.*                                 TOTAL NUMBER OF BITS TO PRINT.       22140042
         GBLC &ITEM(1000)                                               22230042
         GBLA &ITEMNBR,&BITS(1000),&SHIFT(1000),&NRENTS                 22320042
         GBLC  &DSECT                                                   22410042
         LCLB  &B                                                       22500042
         LCLA  &IBITS,&NDX,&ISHIFT,&K                                   22590042
         LCLA  &TEMP,&T                                                 22680042
         LCLC  &S                                                       22770042
.LOOP    ANOP                                                           22860042
&NDX     SETA  &NDX+1                                                   22950042
         AIF   ('&ITEM(&NDX)' EQ '&LOGITEM').FOUND                      23040042
         AIF   (&NDX LT &ITEMNBR).LOOP                                  23130042
         MNOTE *,'YOU BLEW IT'                                          23220042
         ROUTINE DUM,SKIPPER                                            23310042
         MEXIT                                                          23400042
.FOUND   ANOP                                                           23490042
&ISHIFT  SETA  &SHIFT(&NDX)                                             23580042
&IBITS   SETA  &BITS(&NDX)                                              23670042
&T       SETA  &IBITS-1                                                 23760042
&B       SETB  0                                                        23850042
         AIF   ('&SKIP$OR' EQ '').BACKUP                                23940042
&K       SETA  K'&SKIP$OR                                               24030042
&B       SETB  ('&SKIP$OR'(1,1) EQ 'B')                                 24120042
&S       SETC  '&SKIP$OR'(&B+1,&K-&B)                                   24210042
&T       SETA  &S                                                       24300042
.BACKUP  ANOP                                                           24390042
&NRENTS  SETA  &NRENTS+1                                                24480042
&TEMP    SETA  &ISHIFT                                                  24570042
A&SYSNDX DC    AL.12(&LOGITEM-&DSECT),XL.4'&TEMP'                       24660042
         AIF (&IBITS EQ 1 AND &B EQ 0).OUT                              24750042
         ORG   A&SYSNDX                                                 24840042
&B       SETB  1                                                        24930042
         DC    AL.12(&LOGITEM-&DSECT),XL.4'C'                           25020042
         DC    BL.1'&B',AL.7(&T),AL.4(&IBITS),FL.4'&ISHIFT'             25110042
.OUT     ANOP                                                           25200042
         MEND                                                           25290042
         EJECT                                                          25380042
*  HEX MACRO     HEX MACRO     HEX MACRO    HEXN MACRO     HEX MACRO  * 25470042
         SPACE 2                                                        25560042
         MACRO                                                          25650042
         HEX   &LOGITEM,&SKIP$OR,&BYTES                                 25740042
.*                            THIS MACRO FACILITATES GENERATION OF THE  25830042
.*                                 TABLE ENTRIES SPECIFYING HEX TYPE    25920042
.*                                 CONVERSIONS.                         26010042
.*                            &LOGITEM - NAME OF DATA ITEM TO BE        26100042
.*                                 CONVERTED                            26190042
.*                            &SKIP$OR - NUMBER OF SPACES TO SKIP ON    26280042
.*                                 MULTIPLE PRINT OR NBR OF SPACES TO   26370042
.*                                 BACK UP FROM COLUMN FOR START OF     26460042
.*                                 PRINTING. THE LETTER B PRECEEDS THE  26550042
.*                                 NUMBER (B8) IF THE LATTER OPTION IS  26640042
.*                                 DESIRED. OMISSION OF THIS OPERAND    26730042
.*                                 FORCES OPTION 2 WITH BACKUP SPACING  26820042
.*                                 EQUAL TO THE NUMBER OF BYTES SPECI-  26910042
.*                                 FIED BY THE NEXT OPERAND (TWICE THIS 27000042
.*                                 NUMBER IF SUFFIX IS EXPLICITLY OR    27090042
.*                                 IMPLICITLY B).                       27180042
.*                            &BYTES - NUMBER OF TOTAL INPUT BYTES TO   27270042
.*                                 PROCESS. THIS NUMBER IS SUFFIXED     27360042
.*                                 WITH AN L,R, OR B TO STIPULATE       27450042
.*                                 PRINTING OF THE LEFT HALF, RIGHT     27540042
.*                                 HALF, OR BOTH HALVES OF THE BYTE     27630042
.*                                 RESPECTIVELY. OMISSION OF THIS       27720042
.*                                 OPERAND DEFAULTS TO B WITH THE NUM-  27810042
.*                                 BER OF BYTES EQUAL TO THE ITEM LNGTH 27900042
.*                            A NEW ENTRY IS GENERATED ONLY WHEN NECES- 27990042
.*                                 SARY. THIS MACRO MUST BE THE FIRST   28080042
.*                                 MACRO INSTRUCTION ISSUED FOR THE     28170042
.*                                 SUBJECT LINE(S).                     28260042
         GBLC &ITEM(1000),&DSECT                                        28350042
         GBLA &ITEMNBR,&BITS(1000),&SHIFT(1000),&NRENTS                 28440042
         LCLB  &B                                                       28530042
         LCLA  &IBITS,&NDX,&ISHIFT,&K,&T,&CODE,&BYTESP                  28620042
         LCLC  &S,&LETTER                                               28710042
.LOOP    ANOP                                                           28800042
&NDX     SETA  &NDX+1                                                   28890042
         AIF   ('&ITEM(&NDX)' EQ '&LOGITEM').FOUND                      28980042
         AIF   (&NDX LT &ITEMNBR).LOOP                                  29070042
         MNOTE *,'LOG ITEM NOT DEFINED'                                 29160042
         MEXIT                                                          29250042
.FOUND   ANOP                                                           29340042
&ISHIFT  SETA  &SHIFT(&NDX)                                             29430042
&IBITS   SETA  &BITS(&NDX)                                              29520042
&CODE    SETA  1                                                        29610042
&K       SETA  K'&BYTES                                                 29700042
         AIF   (&IBITS-(&IBITS/4)*4 EQ 0).OK                            29790042
         MNOTE *,'BIT LENGTH SPECIFICATION INCONSISTENT WITH CONTROL'   29880042
         MEXIT                                                          29970042
.OK      AIF   ('&BYTES' EQ '').USEDEFN                                 30060042
&LETTER  SETC  '&BYTES'(&K,1)                                           30150042
&S       SETC  '&BYTES'(1,&K-1)                                         30240042
&BYTESP  SETA  &S                                                       30330042
         AIF   ('&LETTER' EQ 'B').BOTH                                  30420042
         AIF   (&ISHIFT EQ 0 OR &ISHIFT EQ 4).OK2                       30510042
.ERR     MNOTE *,'DATA NOT ALLIGNED ON HEX OR BYTE BOUNDARY'            30600042
         MEXIT                                                          30690042
.USEDEFN ANOP                                                           30780042
&BYTESP  SETA  &IBITS/8                                                 30870042
.BOTH    AIF   (&ISHIFT NE 0).ERR                                       30960042
&CODE    SETA  3                                                        31050042
&T       SETA  &BYTESP*2-1                                              31140042
&S       SETC  '&T'                                                     31230042
.OK2     AIF   (&ISHIFT EQ 0).L                                         31320042
&CODE    SETA  2                                                        31410042
.L       ANOP                                                           31500042
&B       SETB  1                                                        31590042
         AIF   ('&SKIP$OR' EQ '').BACKUP                                31680042
&K       SETA  K'&SKIP$OR                                               31770042
&B       SETB  ('&SKIP$OR'(1,1) EQ 'B')                                 31860042
&S       SETC  '&SKIP$OR'(&B+1,&K-&B)                                   31950042
.BACKUP  ANOP                                                           32040042
&NRENTS  SETA  &NRENTS+1                                                32130042
         DC    AL.12(&LOGITEM-&DSECT),XL.4'A'                           32220042
         DC    BL.1'&B',FL.7'&S',FL.4'&BYTESP',FL.4'&CODE'              32310042
.OUT     ANOP                                                           32400042
         MEND                                                           32490042
         SPACE 2                                                        32580042
*  ROUTINE MACRO     ROUTINE MACRO     ROUTINE MACRO     ROUTINE MACRO* 32670042
         SPACE 2                                                        32760042
         MACRO                                                          32850042