***************************************************************  S21021 00130002
*                                                                       00260002
************             ENTIRE MODULE REPLACED UNDER CODE S21021       00390002
         SPACE 2                                                        00520002
*  LINE MACRO     LINE MACRO     LINE MACRO     LINE MACRO            * 00650002
         MACRO                                                          00780002
&NAME    LINE  &DATA,&LABEL,&SKIP=                                      00910002
.*                            THIS MACRO ESTABLISHES THE MARGINS OR     01040002
.*                                 COLUMN SETTINGS FOR EACH LINE. IT    01170002
.*                                 GENERATES NECESSARY CARRIAGE CONTROL 01300002
.*                                 ENTRIES. LASTLY IT DETERMINES THE    01430002
.*                                 NUMBER OF ENTRIES ASSOCIATED WITH    01560002
.*                                 THE PREVIOUS LINE AND STORES THAT #  01690002
.*                                 INTO THE APPROPRIATE BYTE.           01820002
.*                            &DATA(1) - CHARACTER POSITION TO BEGIN    01950002
.*                                 DATA.                                02080002
.*                            &DATA(2) - # OF SPACES BETWEEN SUCCESSIVE 02210002
.*                                 DATA COLUMN STARTING CHARACTERS.     02340002
.*                            &LABEL(1) - CHAR. POS. TO BEGIN LABELS.   02470002
.*                            &LABEL(2) - # SPACES BETWEEN LINE'S LABEL 02600002
.*                                 STARTING CHARACTERS.                 02730002
.*                            &SKIP= - # OF LINES TO ADVANCE CARRIAGE   02860002
.*                                 TO BEGIN NEXT PRINTED LINE.          02990002
.*                            NEW ENTRIES ARE GENERATED ONLY WHEN       03120002
.*                                 NECESSARY. OMISSION OF ITEMS MEANS   03250002
.*                                 THEY HAVE NOT CHANGED SINCE PREVIOUS 03380002
.*                                 SETTINGS. A LINE MACRO IS REQUIRED   03510002
.*                                 FOR EACH PRINTED LINE. IF NO SETTING 03640002
.*                                 CHANGES ARE REQUIRED ALL OPERANDS    03770002
.*                                 ARE OMITTED IN WHICH CASE ONLY THE   03900002
.*                                 # OF ENTRIES FOR THE PREVIOUS LINE   04030002
.*                                 IS COMPUTED. THIS MACRO MUST BE THE  04160002
.*                                 FIRST MACRO INSTRUCTION ISSUED FOR   04290002
.*                                 THE SUBJECT LINE                     04420002
         GBLA  &DB,&DT,&LB,&LT,&NRENTS                                  04550002
         GBLA  &LASTCC,&INITIAL                                         04680002
         GBLC  &NRENTSX                                                 04810002
         GBLC  &CARRCON                                                 04940002
         GBLB  &TEST                                                    05070002
         LCLA  &S                                                       05200002
&NAME    DS    0C                                                       05330002
         AIF   (&INITIAL EQ 0).FIRSTLN                                  05460002
         LINEND                                                         05590002
         AGO   .NTFIRST                                                 05720002
.FIRSTLN ANOP                                                           05850002
&NRENTSX SETC  'N&SYSNDX'                                               05980002
&INITIAL SETA  1                                                        06110002
N&SYSNDX EQU   *                                                        06240002
.NTFIRST ANOP                                                           06370002
         DC    AL1(0)                                                   06500002
         AIF   ('&DATA(1)' EQ '').CKDTABS                               06630002
         AIF   (&DATA(1) EQ &DB).CKDTABS                                06760002
&DB      SETA  &DATA(1)                                                 06890002
         AGO   .AA                                                      07020002
.CKDTABS AIF   ('&DATA(2)' EQ '').NCDATA                                07150002
         AIF   (&DATA(2) EQ &DT).NCDATA                                 07280002
         AGO   .CC                                                      07410002
.AA      AIF   ('&DATA(2)' EQ '').BB                                    07540002
         AIF   (&DATA(2) EQ &DT).BB                                     07670002
.CC      ANOP                                                           07800002
&DT      SETA  &DATA(2)                                                 07930002
.BB      DC    XL2'FFFE'                                                08060002
         DC    FL1'&DB'                                                 08190002
         DC    FL1'&DT'                                                 08320002
&NRENTS  SETA  &NRENTS+1                                                08450002
.NCDATA  ANOP                                                           08580002
         AIF   ('&LABEL(1)' EQ '').CKLTABS                              08710002
         AIF   (&LABEL(1) EQ &LB).CKLTABS                               08840002
&LB      SETA  &LABEL(1)                                                08970002
         AGO   .AAA                                                     09100002
.CKLTABS AIF   ('&LABEL(2)' EQ '').NCLABEL                              09230002
         AIF   (&LABEL(2) EQ &LT).NCLABEL                               09360002
         AGO   .CCC                                                     09490002
.AAA     AIF   ('&LABEL(2)' EQ '').BBB                                  09620002
         AIF   (&LABEL(2) EQ &LT).BBB                                   09750002
.CCC     ANOP                                                           09880002
&LT      SETA  &LABEL(2)                                                10010002
.BBB     DC    XL2'FFFF'                                                10140002
         DC    FL1'&LB'                                                 10270002
         DC    FL1'&LT'                                                 10400002
&NRENTS  SETA  &NRENTS+1                                                10530002
.NCLABEL ANOP                                                           10660002
         AIF   ('&SKIP' NE '').CONT                                     10790002
         AIF   (&TEST EQ 0).NOCHANG                                     10920002
&S       SETA  &LASTCC                                                  11050002
         AGO   .DEFAULT                                                 11180002
.CONT    ANOP                                                           11310002
         AIF   (&TEST EQ 0).AB                                          11440002
&S       SETA  &SKIP                                                    11570002
.DEFAULT ANOP                                                           11700002
         ORG   &CARRCON+3                                               11830002
         DC    AL.3(0),AL.2(&S),AL.3(1)                                 11960002
         ORG                                                            12090002
&LASTCC  SETA  &S                                                       12220002
&TEST    SETB  0                                                        12350002
         AGO   .DD                                                      12480002
.AB      AIF   (&SKIP EQ &LASTCC).NOCHANG                               12610002
A&SYSNDX DC    XL2'FFFB'                                                12740002
         DC    AL.3(0),AL.2(&SKIP),AL.3(1)                              12870002
         DC    FL1'9'                                                   13000002
&LASTCC  SETA  &SKIP                                                    13130002
&TEST    SETB  1                                                        13260002
&CARRCON SETC  'A&SYSNDX'                                               13390002
&NRENTS  SETA  &NRENTS+1                                                13520002
.DD      ANOP                                                           13650002
.NOCHANG ANOP                                                           13780002
         MEND                                                           13910002
         EJECT                                                          14040002
         SPACE 2                                                        14170002
*  ROUTINE MACRO     ROUTINE MACRO     ROUTINE MACRO     ROUTINE MACRO* 14300002
         MACRO                                                          14430002
&NAME    ROUTINE &LOGITEM,&RNAME                                        14560002
         GBLC  &DSECT,&CSECT                                            14690002
         GBLC  &ITEM(1000)                                              14820002
         GBLA  &SHIFT(1000),&ITEMNBR                                    14950002
         GBLA  &NRENTS                                                  15080002
         LCLA  &ISHIFT,&NDX                                             15210002
.LOOP    ANOP                                                           15340002
&NDX     SETA  &NDX+1                                                   15470002
         AIF   ('&ITEM(&NDX)' EQ '&LOGITEM').FOUND                      15600002
         AIF   (&NDX LT &ITEMNBR).LOOP                                  15730002
         MNOTE *,'LOG ITEM NOT DEFINED'                                 15860002
         MEXIT                                                          15990002
.FOUND   ANOP                                                           16120002
&ISHIFT  SETA  &SHIFT(&NDX)                                             16250002
&NAME    DC    AL.12(&LOGITEM-&DSECT),XL.4'D'                           16380002
         DC    AL.4(&ISHIFT),AL.12(&RNAME-&CSECT)                       16510002
&NRENTS  SETA  &NRENTS+1                                                16640002
         MEND                                                           16770002
*  DSGEN MACRO     DSGEN MACRO     DSGEN MACRO     DSGEN MACRO        * 16900002
         SPACE 2                                                        17030002
         MACRO                                                          17160002
&NAME    DSGEN &X1,&X2,&X3,&X4,&X5,&X6,&X7,&X8,&X9,&X10,&X11,&X12,&X13,X17290002
               &X14,&X15,&X16,&X17,&X18,&X19,&X20,&X21,&X22,&X23,&X24, X17420002
               &X25,&X26,&X27,&X28,&X29,&X30,&X31,&X32                  17550002
.*                            THIS MACRO GENERATES ONE DSECT WORD       17680002
.*                                 FORMATTED FOR THE SUBJECT LOG RECORD 17810002
.*                                 EACH OPERAND HAS TWO SUB LISTS. THE  17940002
.*                                 FIRST IS THE NAME OF THE LOG ITEM    18070002
.*                                 WHILE THE SECOND IS THE # OF BITS TO 18200002
.*                                 ALLOCATE FOR THIS ITEM. ITEMS MUST   18330002
.*                                 BE DEFINED CONTIGUOUSLY WITHOUT GAPS 18460002
.*                                 UNUSED BIT GROUPS MUST BE GIVEN      18590002
.*                                 DUMMY NAMES. THE NAMES PROVIDED FOR  18720002
.*                                 THE LOG ITEMS MAY THEN BE USED IN    18850002
.*                                 THE CONVERSION MACRO INSTRUCTIONS.   18980002
         GBLC &ITEM(1000)                                               19110002
         GBLA &ITEMNBR,&BITS(1000),&SHIFT(1000)                         19240002
         LCLC  &SYMBOL                                                  19370002
         LCLA  &OP,&COUNT,&BYTE                                         19500002
.LOOP    ANOP                                                           19630002
&OP      SETA  &OP+1                                                    19760002
&ITEMNBR SETA  &ITEMNBR+1                                               19890002
&SYMBOL  SETC  '&SYSLIST(&OP,1)'                                        20020002
         AIF   ('&SYSLIST(&OP,2)' NE '').OK1                            20150002
         MNOTE *,'NULL BIT COUNT FIELD'                                 20280002
         MEXIT                                                          20410002
.OK1     ANOP                                                           20540002
         AIF   ('&SYMBOL' NE '').OK                                     20670002
         MNOTE 'LOG ITEM SYMBOL NOT PROVIDED'                           20800002
         AGO   .CNT                                                     20930002
.OK      ANOP                                                           21060002
         AIF   ('&SYMBOL'(1,1) EQ '''').CNT                *TEMP*       21190002
&SYMBOL  EQU   *+&BYTE                                                  21320002
&ITEM(&ITEMNBR)  SETC '&SYSLIST(&OP,1)'                                 21450002
&BITS(&ITEMNBR) SETA &SYSLIST(&OP,2)                                    21580002
&SHIFT(&ITEMNBR) SETA &COUNT-&BYTE*8                                    21710002
.CNT     ANOP                                                           21840002
&COUNT   SETA  &COUNT+&SYSLIST(&OP,2)                                   21970002
&BYTE    SETA  &COUNT/8                                                 22100002
         AIF (&OP LT N'&SYSLIST).LOOP                                   22230002
         AIF   (&COUNT NE 32).NOT32                                     22360002
&NAME    DS    4C                                                       22490002
         MEXIT                                                          22620002
.NOT32   AIF   (&COUNT NE 64).ERR                                       22750002
&NAME    DS    8C                                                       22880002
         MEXIT                                                          23010002
.ERR     MNOTE '**BIT COUNT FIELDS DO NOT TOTAL 32 OR 64**'             23140002
         MEND                                                           23270002
         MACRO                                                          23400002
         LINEND                                                         23530002
.*                            THIS MACRO IS USED ONLY BY THE LINE       23660002
.*                                 MACRO TO SET THE NUMBER OF ENTRIES   23790002
.*                                 ASSOCIATED WITH EACH LINE.           23920002
         GBLA  &NRENTS                                                  24050002
         GBLC &NRENTSX                                                  24180002
         ORG   &NRENTSX                                                 24310002
         DC    FL1'&NRENTS'                                             24440002
         ORG                                                            24570002
&NRENTS  SETA  0                                                        24700002
B&SYSNDX EQU   *                                                        24830002
&NRENTSX SETC  'B&SYSNDX'                                               24960002
         MEND                                                           25090002
         SPACE 2                                                        25220002
         EJECT                                                          25350002
*  LABEL MACRO     LABEL MACRO     LABEL MACRO     LABEL MACRO        * 25480002
         SPACE 2                                                        25610002
         MACRO                                                          25740002
&NAME    LABEL &LABEL1,&LABEL2,&LABEL3,&LABEL4,&LABEL5,&LABEL6,        C25870002
               &LABEL7,&LABEL8                                          26000002
.*                            THIS MACRO ALLOWS UP TO ACHT LABELS TO    26130002
.*                                 BE SPECIFIED FOR A GIVEN LINE. THE   26260002
.*                                 LABELS SHOULD BE ENCLOSED IN QUOTA-  26390002
.*                                 TION MARKS. THE COLUMN AND LINE END  26520002
.*                                 CONTROLS WILL BE INSERTED BY THE     26650002
.*                                 MACRO. OMITTED OPERANDS MEAN NO      26780002
.*                                 LABEL REQUIRED FOR RESPECTIVE        26910002
.*                                 COLUMN. THIS MACRO WILL ALSO ALERT   27040002
.*                                 THE PROGRAMMER TO EXACTLY WHERE THE  27170002
.*                                 TABLE MUST BE BROKEN IF NECESSARY    27300002
.*                                 TO AVOID EXCEEDING THE MAXIMUM LIMIT 27430002
         GBLC &LABELS(2000)                                             27560002
         GBLC  &LBL(100)                                                27690002
         GBLA  &LBLCTR(100)                                             27820002
         GBLA  &LABELNR                                                 27950002
         GBLA  &NRENTS,&LPTR                                            28080002
         LCLC  &MARGIN,&TACK                                            28210002
         LCLC  &TEXT                                                    28340002
         LCLA  &OP,&K,&START,&NRCHAR,&REMAIN                            28470002
&MARGIN  SETC  '*'                                                      28600002
         AIF   ('&NAME' EQ '').LOOPOUT                                  28730002
&LPTR    SETA  &LPTR+1                                                  28860002
&LBL(&LPTR) SETC '&NAME'                                                28990002
&LBLCTR(&LPTR) SETA &LABELNR+1                                          29120002
.LOOPOUT ANOP                                                           29250002
&OP      SETA  &OP+1                                                    29380002
&K       SETA  K'&SYSLIST(&OP)                                          29510002
         AIF (&K GE 2).NORM                                             29640002
&K       SETA  2                                                        29770002
.NORM    ANOP                                                           29900002
&START   SETA  2                                                        30030002
         AIF (&OP LT N'&SYSLIST).NOTLAST                                30160002
&MARGIN  SETC  '$'                                                      30290002
.NOTLAST ANOP                                                           30420002
&NRCHAR  SETA  8                                                        30550002
&TACK    SETC  ''                                                       30680002
.LOOPIN  ANOP                                                           30810002
&REMAIN  SETA  &K-&START                                                30940002
         AIF (&REMAIN GE 8).MORE                                        31070002
&TACK    SETC  '&MARGIN'                                                31200002
&NRCHAR  SETA  &REMAIN                                                  31330002
.MORE    ANOP                                                           31460002
&TEXT    SETC  ''                                                       31590002
         AIF (&REMAIN EQ 0).ENDTEXT                                     31720002
&TEXT    SETC  '&SYSLIST(&OP)'(&START,&NRCHAR)                          31850002
.ENDTEXT ANOP                                                           31980002
&LABELNR SETA  &LABELNR+1                                               32110002
&LABELS(&LABELNR) SETC '&TEXT'.'&TACK'                                  32240002
&START   SETA  &START+8                                                 32370002
         AIF ('&TACK' EQ '').LOOPIN                                     32500002
         AIF ('&TACK' EQ '*').LOOPOUT                                   32630002
         MEND                                                           32760002
         SPACE 2                                                        32890002
         MACRO                                                          33020002
         LSTART                                                         33150002
.*                            THIS MACRO IS ISSUED WHEN THE LABEL AREA  33280002
.*                                 OF THE TABLE IS TO BEGIN.            33410002
         GBLC &LABELS(2000)                                             33540002
         GBLA  &LABELNR                                                 33670002
         GBLC  &LBL(100)                                                33800002
         GBLA  &LBLCTR(100)                                             33930002
         LCLA  &NDX,&CTR                                                34060002
         LINEND                                                         34190002
&CTR     SETA  1                                                        34320002
.LOOP    ANOP                                                           34450002
&NDX     SETA  &NDX+1                                                   34580002
         AIF   (&LBLCTR(&CTR) NE &NDX).NOLBL                            34710002
&LBL(&CTR) DC  C'&LABELS(&NDX)'                                         34840002
&CTR     SETA  &CTR+1                                                   34970002
         AGO   .LOOPCTL                                                 35100002
.NOLBL   ANOP                                                           35230002
         DC    C'&LABELS(&NDX)'                                         35360002
.LOOPCTL AIF   (&NDX LT &LABELNR).LOOP                                  35490002
         MEND                                                           35620002
         SPACE 2                                                        35750002
*  BIN MACRO     BIN MACRO     BIN MACRO     BIN MACRO     BIN MACRO  * 35880002
         SPACE 2                                                        36010002
         MACRO                                                          36140002
         BIN   &LOGITEM,&SKIP$OR                                        36270002
.*                                 &LOGITEM - NAME OF ITEM IN LOG       36400002
.*                                      RECORD DSECT                    36530002
.*                                 &SKIP$OR - NBR OF SPACES TO SKIP ON  36660002
.*                                 MULTIPLE PRINT OR NBR OF SPACES      36790002
.*                                      TO BACK UP FROM COLUMN FOR      36920002
.*                                      START OF PRINTING. THE LETTER   37050002
.*                                      B PRECEEDS THE NUMBER (B5) IF   37180002
.*                                      THE LATTER IS DESIRED. OMISSION 37310002
.*                                      OF THIS OPERAND FORCES OPTION 2 37440002
.*                                      WITH BACKUP SPACING EQUAL TO    37570002
.*                                 THE NUMBER OF BITS IN THE ITEM       37700002
.*                                 DEFINITION (VIA MACRO 'DSGEN').      37830002
.*                            A LIMIT OF 15 BITS IS IMPOSED FOR THE     37960002
.*                                 TOTAL NUMBER OF BITS TO PRINT.       38090002
         GBLC &ITEM(1000)                                               38220002
         GBLA &ITEMNBR,&BITS(1000),&SHIFT(1000),&NRENTS                 38350002
         GBLC  &DSECT                                                   38480002
         LCLB  &B                                                       38610002
         LCLA  &IBITS,&NDX,&ISHIFT,&K                                   38740002
         LCLA  &TEMP,&T                                                 38870002
         LCLC  &S                                                       39000002
.LOOP    ANOP                                                           39130002
&NDX     SETA  &NDX+1                                                   39260002
         AIF   ('&ITEM(&NDX)' EQ '&LOGITEM').FOUND                      39390002
         AIF   (&NDX LT &ITEMNBR).LOOP                                  39520002
         MNOTE *,'YOU BLEW IT'                                          39650002
         ROUTINE DUM,SKIPPER                                            39780002
         MEXIT                                                          39910002
.FOUND   ANOP                                                           40040002
&ISHIFT  SETA  &SHIFT(&NDX)                                             40170002
&IBITS   SETA  &BITS(&NDX)                                              40300002
&T       SETA  &IBITS-1                                                 40430002
&B       SETB  0                                                        40560002
         AIF   ('&SKIP$OR' EQ '').BACKUP                                40690002
&K       SETA  K'&SKIP$OR                                               40820002
&B       SETB  ('&SKIP$OR'(1,1) EQ 'B')                                 40950002
&S       SETC  '&SKIP$OR'(&B+1,&K-&B)                                   41080002
&T       SETA  &S                                                       41210002
.BACKUP  ANOP                                                           41340002
&NRENTS  SETA  &NRENTS+1                                                41470002
&TEMP    SETA  &ISHIFT                                                  41600002
A&SYSNDX DC    AL.12(&LOGITEM-&DSECT),XL.4'&TEMP'                       41730002
         AIF (&IBITS EQ 1 AND &B EQ 0).OUT                              41860002
         ORG   A&SYSNDX                                                 41990002
&B       SETB  1                                                        42120002
         DC    AL.12(&LOGITEM-&DSECT),XL.4'C'                           42250002
         DC    BL.1'&B',AL.7(&T),AL.4(&IBITS),FL.4'&ISHIFT'             42380002
.OUT     ANOP                                                           42510002
         MEND                                                           42640002
         EJECT                                                          42770002
*  HEX MACRO     HEX MACRO     HEX MACRO    HEXN MACRO     HEX MACRO  * 42900002
         SPACE 2                                                        43030002
         MACRO                                                          43160002
         HEX   &LOGITEM,&SKIP$OR,&BYTES                                 43290002
.*                            THIS MACRO FACILITATES GENERATION OF THE  43420002
.*                                 TABLE ENTRIES SPECIFYING HEX TYPE    43550002
.*                                 CONVERSIONS.                         43680002
.*                            &LOGITEM - NAME OF DATA ITEM TO BE        43810002
.*                                 CONVERTED                            43940002
.*                            &SKIP$OR - NUMBER OF SPACES TO SKIP ON    44070002
.*                                 MULTIPLE PRINT OR NBR OF SPACES TO   44200002
.*                                 BACK UP FROM COLUMN FOR START OF     44330002
.*                                 PRINTING. THE LETTER B PRECEEDS THE  44460002
.*                                 NUMBER (B8) IF THE LATTER OPTION IS  44590002
.*                                 DESIRED. OMISSION OF THIS OPERAND    44720002
.*                                 FORCES OPTION 2 WITH BACKUP SPACING  44850002
.*                                 EQUAL TO THE NUMBER OF BYTES SPECI-  44980002
.*                                 FIED BY THE NEXT OPERAND (TWICE THIS 45110002
.*                                 NUMBER IF SUFFIX IS EXPLICITLY OR    45240002
.*                                 IMPLICITLY B).                       45370002
.*                            &BYTES - NUMBER OF TOTAL INPUT BYTES TO   45500002
.*                                 PROCESS. THIS NUMBER IS SUFFIXED     45630002
.*                                 WITH AN L,R, OR B TO STIPULATE       45760002
.*                                 PRINTING OF THE LEFT HALF, RIGHT     45890002
.*                                 HALF, OR BOTH HALVES OF THE BYTE     46020002
.*                                 RESPECTIVELY. OMISSION OF THIS       46150002
.*                                 OPERAND DEFAULTS TO B WITH THE NUM-  46280002
.*                                 BER OF BYTES EQUAL TO THE ITEM LNGTH 46410002
.*                            A NEW ENTRY IS GENERATED ONLY WHEN NECES- 46540002
.*                                 SARY. THIS MACRO MUST BE THE FIRST   46670002
.*                                 MACRO INSTRUCTION ISSUED FOR THE     46800002
.*                                 SUBJECT LINE(S).                     46930002
         GBLC &ITEM(1000),&DSECT                                        47060002
         GBLA &ITEMNBR,&BITS(1000),&SHIFT(1000),&NRENTS                 47190002
         LCLB  &B                                                       47320002
         LCLA  &IBITS,&NDX,&ISHIFT,&K,&T,&CODE,&BYTESP                  47450002