         TITLE 'IFCST003  3270 REMOTE BUFFER LOG SUMMARY'               00100042
         SPACE 2                                                        00200042
*  LINE MACRO     LINE MACRO     LINE MACRO     LINE MACRO            * 00300042
         MACRO                                                          00400042
&NAME    LINE  &DATA,&LABEL,&SKIP=                                      00500042
.*                            THIS MACRO ESTABLISHES THE MARGINS OR     00600042
.*                                 COLUMN SETTINGS FOR EACH LINE. IT    00700042
.*                                 GENERATES NECESSARY CARRIAGE CONTROL 00800042
.*                                 ENTRIES. LASTLY IT DETERMINES THE    00900042
.*                                 NUMBER OF ENTRIES ASSOCIATED WITH    01000042
.*                                 THE PREVIOUS LINE AND STORES THAT #  01100042
.*                                 INTO THE APPROPRIATE BYTE.           01200042
.*                                 &DATA(1) - CHARACTER POSITION TO     01300042
.*                                 BEGIN DATA.                          01400042
.*                                                                      01500042
.*                                 &DATA(2) - # OF SPACES BETWEEN       01600042
.*                                 SUCCESSIVE DATA COLUMN STARTING      01700042
.*                                 CHARACTERS.                          01800042
.*                                                                      01900042
.*                                 &LABEL(1) - CHARACTER POSITION       02000042
.*                                 TO BEGIN LABELS.                     02100042
.*                                                                      02200042
.*                                 &LABEL(2) - # OF SPACES BETWEEN      02300042
.*                                 LINE'S LABEL STARTING CHARACTERS.    02400042
.*                                                                      02500042
.*                                 &SKIP= - # OF LINES TO ADVANCE       02600042
.*                                 CARRIAGE TO BEGIN NEXT PRINTED LINE. 02700042
.*                                                                      02800042
.*                                 NEW ENTRIES ARE GENERATED ONLY WHEN  02900042
.*                                 NECESSARY. OMISSION OF ITEMS MEANS   03000042
.*                                 THEY HAVE NOT CHANGED SINCE PREVIOUS 03100042
.*                                 SETTINGS. A LINE MACRO IS REQUIRED   03200042
.*                                 FOR EACH PRINTED LINE. IF NO SETTING 03300042
.*                                 CHANGES ARE REQUIRED ALL OPERANDS    03400042
.*                                 ARE OMITTED IN WHICH CASE ONLY THE   03500042
.*                                 # OF ENTRIES FOR THE PREVIOUS LINE   03600042
.*                                 FIRST MACRO INSTRUCTION ISSUED FOR   03700042
.*                                 THE SUBJECT LINE.                    03800042
         GBLA  &DB,&DT,&LB,&LT,&NRENTS                                  03900042
         GBLA  &LASTCC,&INITIAL                                         04000042
         GBLC  &NRENTSX                                                 04100042
         GBLC  &CARRCON                                                 04200042
         GBLB  &TEST                                                    04300042
         LCLA  &S                                                       04400042
&NAME    DS    0C                                                       04500042
         AIF   (&INITIAL EQ 0).FIRSTLN                                  04600042
         LINEND                                                         04700042
         AGO   .NTFIRST                                                 04800042
.FIRSTLN ANOP                                                           04900042
&NRENTSX SETC  'N&SYSNDX'                                               05000042
&INITIAL SETA  1                                                        05100042
&LASTCC  SETA  1                                                        05200042
N&SYSNDX EQU   *                                                        05300042
.NTFIRST ANOP                                                           05400042
         DC    AL1(0)                                                   05500042
         AIF   ('&DATA(1)' EQ '').CKDTABS                               05600042
         AIF   ('&DATA'(1,1) NE '(').SLABEL                             05700042
         AIF   (&DATA(1) EQ &DB).CKDTABS                                05800042
&DB      SETA  &DATA(1)                                                 05900042
         AGO   .AA                                                      06000042
.CKDTABS AIF   ('&DATA(2)' EQ '').NCDATA                                06100042
         AIF   (&DATA(2) EQ &DT).NCDATA                                 06200042
         AGO   .CC                                                      06300042
.AA      AIF   ('&DATA(2)' EQ '').BB                                    06400042
         AIF   (&DATA(2) EQ &DT).BB                                     06500042
.CC      ANOP                                                           06600042
&DT      SETA  &DATA(2)                                                 06700042
.BB      DC    XL2'FFFE'                                                06800042
         DC    FL1'&DB'                                                 06900042
         DC    FL1'&DT'                                                 07000042
&NRENTS  SETA  &NRENTS+1                                                07100042
.NCDATA  ANOP                                                           07200042
         AIF   ('&LABEL(1)' EQ '').CKLTABS                              07300042
         AIF   ('&LABEL'(1,1) NE '(').SLABEL                            07400042
         AIF   (&LABEL(1) EQ &LB).CKLTABS                               07500042
&LB      SETA  &LABEL(1)                                                07600042
         AGO   .AAA                                                     07700042
.CKLTABS AIF   ('&LABEL(2)' EQ '').NCLABEL                              07800042
         AIF   (&LABEL(2) EQ &LT).NCLABEL                               07900042
         AGO   .CCC                                                     08000042
.AAA     AIF   ('&LABEL(2)' EQ '').BBB                                  08100042
         AIF   (&LABEL(2) EQ &LT).BBB                                   08200042
.CCC     ANOP                                                           08300042
&LT      SETA  &LABEL(2)                                                08400042
.BBB     DC    XL2'FFFF'                                                08500042
         DC    FL1'&LB'                                                 08600042
         DC    FL1'&LT'                                                 08700042
&NRENTS  SETA  &NRENTS+1                                                08800042
.NCLABEL ANOP                                                           08900042
         AIF   ('&SKIP' EQ 'E').EJECT                                   09000042
         AIF   ('&SKIP' EQ '').TESTOFF                                  09100042
.CONT    ANOP                                                           09200042
         AIF   (&TEST EQ 0).AB                                          09300042
         AIF   (&SKIP EQ &LASTCC).TESTOFF                               09400042
&S       SETA  &SKIP                                                    09500042
         ORG   &CARRCON+3                                               09600042
         DC    AL.3(0),AL.2(&S),AL.3(1)                                 09700042
         ORG                                                            09800042
&LASTCC  SETA  &S                                                       09900042
.SLABEL  ANOP                                                           10000042
.TESTOFF ANOP                                                           10100042
&TEST    SETB  0                                                        10200042
         AGO   .DD                                                      10300042
.EJECT   DC    XL2'FFFB'                                                10400042
&NRENTS  SETA  &NRENTS+1                                                10500042
         DC    X'8B'              SKIP TO CHANNEL 1                     10600042
         DC    AL.3(0),AL.2(&LASTCC),AL.3(1)                            10700042
&TEST    SETB  1                                                        10800042
         AGO   .DD                                                      10900042
.AB      AIF   (&SKIP EQ &LASTCC).NOCHANG                               11000042
A&SYSNDX DC    XL2'FFFB'                                                11100042
         DC    AL.3(0),AL.2(&SKIP),AL.3(1)                              11200042
         DC    AL.3(0),AL.2(&SKIP),AL.3(1)                              11300042
&LASTCC  SETA  &SKIP                                                    11400042
&TEST    SETB  1                                                        11500042
&CARRCON SETC  'A&SYSNDX'                                               11600042
&NRENTS  SETA  &NRENTS+1                                                11700042
.DD      ANOP                                                           11800042
.NOCHANG ANOP                                                           11900042
         MEND                                                           12000042
         EJECT                                                          12100042
         SPACE 2                                                        12200042
*  ROUTINE MACRO     ROUTINE MACRO     ROUTINE MACRO     ROUTINE MACRO* 12300042
         MACRO                                                          12400042
&NAME    ROUTINE &LOGITEM,&RNAME                                        12500042
         GBLC  &DSECT,&CSECT                                            12600042
         GBLC  &ITEM(1000)                                              12700042
         GBLA  &SHIFT(1000),&ITEMNBR                                    12800042
         GBLA  &NRENTS                                                  12900042
         LCLA  &ISHIFT,&NDX                                             13000042
.LOOP    ANOP                                                           13100042
&NDX     SETA  &NDX+1                                                   13200042
         AIF   ('&ITEM(&NDX)' EQ '&LOGITEM').FOUND                      13300042
         AIF   (&NDX LT &ITEMNBR).LOOP                                  13400042
         MNOTE *,'LOG ITEM NOT DEFINED'                                 13500042
         MEXIT                                                          13600042
.FOUND   ANOP                                                           13700042
&ISHIFT  SETA  &SHIFT(&NDX)                                             13800042
&NAME    DC    AL.12(&LOGITEM-&DSECT),XL.4'D'                           13900042
         DC    AL.4(&ISHIFT),AL.12(&RNAME-&CSECT)                       14000042
&NRENTS  SETA  &NRENTS+1                                                14100042
         MEND                                                           14200042
*  DSGEN MACRO     DSGEN MACRO     DSGEN MACRO     DSGEN MACRO        * 14300042
         SPACE 2                                                        14400042
         MACRO                                                          14500042
&NAME    DSGEN &X1,&X2,&X3,&X4,&X5,&X6,&X7,&X8,&X9,&X10,&X11,&X12,&X13,X14600042
               &X14,&X15,&X16,&X17,&X18,&X19,&X20,&X21,&X22,&X23,&X24, X14700042
               &X25,&X26,&X27,&X28,&X29,&X30,&X31,&X32                  14800042
.*                            THIS MACRO GENERATES ONE DSECT WORD       14900042
.*                                 FORMATTED FOR THE SUBJECT LOG RECORD 15000042
.*                                 EACH OPERAND HAS TWO SUB LISTS. THE  15100042
.*                                 FIRST IS THE NAME OF THE LOG ITEM    15200042
.*                                 WHILE THE SECOND IS THE # OF BITS TO 15300042
.*                                 ALLOCATE FOR THIS ITEM. ITEMS MUST   15400042
.*                                 BE DEFINED CONTIGUOUSLY WITHOUT GAPS 15500042
.*                                 UNUSED BIT GROUPS MUST BE GIVEN      15600042
.*                                 DUMMY NAMES. THE NAMES PROVIDED FOR  15700042
.*                                 THE LOG ITEMS MAY THEN BE USED IN    15800042
.*                                 THE CONVERSION MACRO INSTRUCTIONS.   15900042
         GBLC &ITEM(1000)                                               16000042
         GBLA &ITEMNBR,&BITS(1000),&SHIFT(1000)                         16100042
         LCLC  &SYMBOL                                                  16200042
         LCLA  &OP,&COUNT,&BYTE                                         16300042
.LOOP    ANOP                                                           16400042
&OP      SETA  &OP+1                                                    16500042
&ITEMNBR SETA  &ITEMNBR+1                                               16600042
&SYMBOL  SETC  '&SYSLIST(&OP,1)'                                        16700042
         AIF   ('&SYSLIST(&OP,2)' NE '').OK1                            16800042
         MNOTE *,'NULL BIT COUNT FIELD'                                 16900042
         MEXIT                                                          17000042
.OK1     ANOP                                                           17100042
         AIF   ('&SYMBOL' NE '').OK                                     17200042
         MNOTE 'LOG ITEM SYMBOL NOT PROVIDED'                           17300042
         AGO   .CNT                                                     17400042
.OK      ANOP                                                           17500042
         AIF   ('&SYMBOL'(1,1) EQ '''').CNT                *TEMP*       17600042
&SYMBOL  EQU   *+&BYTE                                                  17700042
&ITEM(&ITEMNBR)  SETC '&SYSLIST(&OP,1)'                                 17800042
&BITS(&ITEMNBR) SETA &SYSLIST(&OP,2)                                    17900042
&SHIFT(&ITEMNBR) SETA &COUNT-&BYTE*8                                    18000042
.CNT     ANOP                                                           18100042
&COUNT   SETA  &COUNT+&SYSLIST(&OP,2)                                   18200042
&BYTE    SETA  &COUNT/8                                                 18300042
         AIF (&OP LT N'&SYSLIST).LOOP                                   18400042
         AIF   (&COUNT NE 32).NOT32                                     18500042
&NAME    DS    4C                                                       18600042
         MEXIT                                                          18700042
.NOT32   AIF   (&COUNT NE 64).ERR                                       18800042
&NAME    DS    8C                                                       18900042
         MEXIT                                                          19000042
.ERR     MNOTE '**BIT COUNT FIELDS DO NOT TOTAL 32 OR 64**'             19100042
         MEND                                                           19200042
         MACRO                                                          19300042
         LINEND                                                         19400042
.*                            THIS MACRO IS USED ONLY BY THE LINE       19500042
.*                                 MACRO TO SET THE NUMBER OF ENTRIES   19600042
.*                                 ASSOCIATED WITH EACH LINE.           19700042
         GBLA  &NRENTS                                                  19800042
         GBLC &NRENTSX                                                  19900042
         ORG   &NRENTSX                                                 20000042
         DC    FL1'&NRENTS'                                             20100042
         ORG                                                            20200042
&NRENTS  SETA  0                                                        20300042
B&SYSNDX EQU   *                                                        20400042
&NRENTSX SETC  'B&SYSNDX'                                               20500042
         MEND                                                           20600042
         SPACE 2                                                        20700042
         EJECT                                                          20800042
*  LABEL MACRO     LABEL MACRO     LABEL MACRO     LABEL MACRO        * 20900042
         SPACE 2                                                        21000042
         MACRO                                                          21100042
&NAME    LABEL &LABEL1,&LABEL2,&LABEL3,&LABEL4,&LABEL5,&LABEL6,        C21200042
               &LABEL7,&LABEL8                                          21300042
.*                            THIS MACRO ALLOWS UP TO ACHT LABELS TO    21400042
.*                                 BE SPECIFIED FOR A GIVEN LINE. THE   21500042
.*                                 LABELS SHOULD BE ENCLOSED IN QUOTA-  21600042
.*                                 TION MARKS. THE COLUMN AND LINE END  21700042
.*                                 CONTROLS WILL BE INSERTED BY THE     21800042
.*                                 MACRO. OMITTED OPERANDS MEAN NO      21900042
.*                                 LABEL REQUIRED FOR RESPECTIVE        22000042
.*                                 COLUMN. THIS MACRO WILL ALSO ALERT   22100042
.*                                 THE PROGRAMMER TO EXACTLY WHERE THE  22200042
.*                                 TABLE MUST BE BROKEN IF NECESSARY    22300042
.*                                 TO AVOID EXCEEDING THE MAXIMUM LIMIT 22400042
         GBLC &LABELS(2000)                                             22500042
         GBLC  &LBL(100)                                                22600042
         GBLA  &LBLCTR(100)                                             22700042
         GBLA  &LABELNR                                                 22800042
         GBLA  &NRENTS,&LPTR                                            22900042
         LCLC  &MARGIN,&TACK                                            23000042
         LCLC  &TEXT                                                    23100042
         LCLA  &OP,&K,&START,&NRCHAR,&REMAIN                            23200042
&MARGIN  SETC  '*'                                                      23300042
         AIF   ('&NAME' EQ '').LOOPOUT                                  23400042
&LPTR    SETA  &LPTR+1                                                  23500042
&LBL(&LPTR) SETC '&NAME'                                                23600042
&LBLCTR(&LPTR) SETA &LABELNR+1                                          23700042
.LOOPOUT ANOP                                                           23800042
&OP      SETA  &OP+1                                                    23900042
&K       SETA  K'&SYSLIST(&OP)                                          24000042
         AIF (&K GE 2).NORM                                             24100042
&K       SETA  2                                                        24200042
.NORM    ANOP                                                           24300042
&START   SETA  2                                                        24400042
         AIF (&OP LT N'&SYSLIST).NOTLAST                                24500042
&MARGIN  SETC  '$'                                                      24600042
.NOTLAST ANOP                                                           24700042
&NRCHAR  SETA  8                                                        24800042
&TACK    SETC  ''                                                       24900042
.LOOPIN  ANOP                                                           25000042
&REMAIN  SETA  &K-&START                                                25100042
         AIF (&REMAIN GE 8).MORE                                        25200042
&TACK    SETC  '&MARGIN'                                                25300042
&NRCHAR  SETA  &REMAIN                                                  25400042
.MORE    ANOP                                                           25500042
&TEXT    SETC  ''                                                       25600042
         AIF (&REMAIN EQ 0).ENDTEXT                                     25700042
&TEXT    SETC  '&SYSLIST(&OP)'(&START,&NRCHAR)                          25800042
.ENDTEXT ANOP                                                           25900042
&LABELNR SETA  &LABELNR+1                                               26000042
&LABELS(&LABELNR) SETC '&TEXT'.'&TACK'                                  26100042
&START   SETA  &START+8                                                 26200042
         AIF ('&TACK' EQ '').LOOPIN                                     26300042
         AIF ('&TACK' EQ '*').LOOPOUT                                   26400042
         MEND                                                           26500042
         SPACE 2                                                        26600042
         MACRO                                                          26700042
         LSTART                                                         26800042
.*                            THIS MACRO IS ISSUED WHEN THE LABEL AREA  26900042
.*                                 OF THE TABLE IS TO BEGIN.            27000042
         GBLC &LABELS(2000)                                             27100042
         GBLA  &LABELNR                                                 27200042
         GBLC  &LBL(100)                                                27300042
         GBLA  &LBLCTR(100)                                             27400042
         LCLA  &NDX,&CTR                                                27500042
         LINEND                                                         27600042
&CTR     SETA  1                                                        27700042
.LOOP    ANOP                                                           27800042
&NDX     SETA  &NDX+1                                                   27900042
         AIF   (&LBLCTR(&CTR) NE &NDX).NOLBL                            28000042
&LBL(&CTR) DC  C'&LABELS(&NDX)'                                         28100042
&CTR     SETA  &CTR+1                                                   28200042
         AGO   .LOOPCTL                                                 28300042
.NOLBL   ANOP                                                           28400042
         DC    C'&LABELS(&NDX)'                                         28500042
.LOOPCTL AIF   (&NDX LT &LABELNR).LOOP                                  28600042
         MEND                                                           28700042
         SPACE 2                                                        28800042
*  BIN MACRO     BIN MACRO     BIN MACRO     BIN MACRO     BIN MACRO  * 28900042
         SPACE 2                                                        29000042
         MACRO                                                          29100042
         BIN   &LOGITEM,&SKIP$OR                                        29200042
.*                                 &LOGITEM - NAME OF ITEM IN LOG       29300042
.*                                      RECORD DSECT                    29400042
.*                                 &SKIP$OR - NBR OF SPACES TO SKIP ON  29500042
.*                                 MULTIPLE PRINT OR NBR OF SPACES      29600042
.*                                      TO BACK UP FROM COLUMN FOR      29700042
.*                                      START OF PRINTING. THE LETTER   29800042
.*                                      B PRECEEDS THE NUMBER (B5) IF   29900042
.*                                      THE LATTER IS DESIRED. OMISSION 30000042
.*                                      OF THIS OPERAND FORCES OPTION 2 30100042
.*                                      WITH BACKUP SPACING EQUAL TO    30200042
.*                                 THE NUMBER OF BITS IN THE ITEM       30300042
.*                                 DEFINITION (VIA MACRO 'DSGEN').      30400042
.*                            A LIMIT OF 15 BITS IS IMPOSED FOR THE     30500042
.*                                 TOTAL NUMBER OF BITS TO PRINT.       30600042
         GBLC &ITEM(1000)                                               30700042
         GBLA &ITEMNBR,&BITS(1000),&SHIFT(1000),&NRENTS                 30800042
         GBLC  &DSECT                                                   30900042
         LCLB  &B                                                       31000042
         LCLA  &IBITS,&NDX,&ISHIFT,&K                                   31100042
         LCLA  &TEMP,&T                                                 31200042
         LCLC  &S                                                       31300042
.LOOP    ANOP                                                           31400042
&NDX     SETA  &NDX+1                                                   31500042
         AIF   ('&ITEM(&NDX)' EQ '&LOGITEM').FOUND                      31600042
         AIF   (&NDX LT &ITEMNBR).LOOP                                  31700042
         MNOTE *,'YOU BLEW IT'                                          31800042
         ROUTINE DUM,SKIPPER                                            31900042
         MEXIT                                                          32000042
.FOUND   ANOP                                                           32100042
&ISHIFT  SETA  &SHIFT(&NDX)                                             32200042
&IBITS   SETA  &BITS(&NDX)                                              32300042
&T       SETA  &IBITS-1                                                 32400042
&B       SETB  0                                                        32500042
         AIF   ('&SKIP$OR' EQ '').BACKUP                                32600042
&K       SETA  K'&SKIP$OR                                               32700042
&B       SETB  ('&SKIP$OR'(1,1) EQ 'B')                                 32800042
&S       SETC  '&SKIP$OR'(&B+1,&K-&B)                                   32900042
&T       SETA  &S                                                       33000042
.BACKUP  ANOP                                                           33100042
&NRENTS  SETA  &NRENTS+1                                                33200042
&TEMP    SETA  &ISHIFT                                                  33300042
A&SYSNDX DC    AL.12(&LOGITEM-&DSECT),XL.4'&TEMP'                       33400042
         AIF (&IBITS EQ 1 AND &B EQ 0).OUT                              33500042
         ORG   A&SYSNDX                                                 33600042
&B       SETB  1                                                        33700042
         DC    AL.12(&LOGITEM-&DSECT),XL.4'C'                           33800042
         DC    BL.1'&B',AL.7(&T),AL.4(&IBITS),FL.4'&ISHIFT'             33900042
.OUT     ANOP                                                           34000042
         MEND                                                           34100042
         EJECT                                                          34200042
*  HEX MACRO     HEX MACRO     HEX MACRO    HEXN MACRO     HEX MACRO  * 34300042
         SPACE 2                                                        34400042
         MACRO                                                          34500042
         HEX   &LOGITEM,&SKIP$OR,&BYTES                                 34600042
.*                            THIS MACRO FACILITATES GENERATION OF THE  34700042
.*                                 TABLE ENTRIES SPECIFYING HEX TYPE    34800042
.*                                 CONVERSIONS.                         34900042
.*                            &LOGITEM - NAME OF DATA ITEM TO BE        35000042
.*                                 CONVERTED                            35100042
.*                            &SKIP$OR - NUMBER OF SPACES TO SKIP ON    35200042
.*                                 MULTIPLE PRINT OR NBR OF SPACES TO   35300042
.*                                 BACK UP FROM COLUMN FOR START OF     35400042
.*                                 PRINTING. THE LETTER B PRECEEDS THE  35500042
.*                                 NUMBER (B8) IF THE LATTER OPTION IS  35600042
.*                                 DESIRED. OMISSION OF THIS OPERAND    35700042
.*                                 FORCES OPTION 2 WITH BACKUP SPACING  35800042
.*                                 EQUAL TO THE NUMBER OF BYTES SPECI-  35900042
.*                                 FIED BY THE NEXT OPERAND (TWICE THIS 36000042
.*                                 NUMBER IF SUFFIX IS EXPLICITLY OR    36100042
.*                                 IMPLICITLY B).                       36200042
.*                            &BYTES - NUMBER OF TOTAL INPUT BYTES TO   36300042
.*                                 PROCESS. THIS NUMBER IS SUFFIXED     36400042
.*                                 WITH AN L,R, OR B TO STIPULATE       36500042