         SPACE 2                                                        00090042
*  LINE MACRO     LINE MACRO     LINE MACRO     LINE MACRO            * 00180042
         MACRO                                                          00270042
&NAME    LINE  &DATA,&LABEL,&SKIP=                                      00360042
.*                            THIS MACRO ESTABLISHES THE MARGINS OR     00450042
.*                                 COLUMN SETTINGS FOR EACH LINE. IT    00540042
.*                                 GENERATES NECESSARY CARRIAGE CONTROL 00630042
.*                                 ENTRIES. LASTLY IT DETERMINES THE    00720042
.*                                 NUMBER OF ENTRIES ASSOCIATED WITH    00810042
.*                                 THE PREVIOUS LINE AND STORES THAT #  00900042
.*                                 INTO THE APPROPRIATE BYTE.           00990042
.*                            &DATA(1) - CHARACTER POSITION TO BEGIN    01080042
.*                                 DATA.                                01170042
.*                            &DATA(2) - # OF SPACES BETWEEN SUCCESSIVE 01260042
.*                                 DATA COLUMN STARTING CHARACTERS.     01350042
.*                            &LABEL(1) - CHAR. POS. TO BEGIN LABELS.   01440042
.*                            &LABEL(2) - # SPACES BETWEEN LINE'S LABEL 01530042
.*                                 STARTING CHARACTERS.                 01620042
.*                            &SKIP= - # OF LINES TO ADVANCE CARRIAGE   01710042
.*                                 TO BEGIN NEXT PRINTED LINE.          01800042
.*                            NEW ENTRIES ARE GENERATED ONLY WHEN       01890042
.*                                 NECESSARY. OMISSION OF ITEMS MEANS   01980042
.*                                 THEY HAVE NOT CHANGED SINCE PREVIOUS 02070042
.*                                 SETTINGS. A LINE MACRO IS REQUIRED   02160042
.*                                 FOR EACH PRINTED LINE. IF NO SETTING 02250042
.*                                 CHANGES ARE REQUIRED ALL OPERANDS    02340042
.*                                 ARE OMITTED IN WHICH CASE ONLY THE   02430042
.*                                 # OF ENTRIES FOR THE PREVIOUS LINE   02520042
.*                                 IS COMPUTED. THIS MACRO MUST BE THE  02610042
.*                                 FIRST MACRO INSTRUCTION ISSUED FOR   02700042
.*                                 THE SUBJECT LINE                     02790042
         GBLA  &DB,&DT,&LB,&LT,&NRENTS                                  02880042
         GBLA  &LASTCC,&INITIAL                                         02970042
         GBLC  &NRENTSX                                                 03060042
         GBLC  &CARRCON                                                 03150042
         GBLB  &TEST                                                    03240042
         LCLA  &S                                                       03330042
&NAME    DS    0C                                                       03420042
         AIF   (&INITIAL EQ 0).FIRSTLN                                  03510042
         LINEND                                                         03600042
         AGO   .NTFIRST                                                 03690042
.FIRSTLN ANOP                                                           03780042
&NRENTSX SETC  'N&SYSNDX'                                               03870042
&INITIAL SETA  1                                                        03960042
N&SYSNDX EQU   *                                                        04050042
.NTFIRST ANOP                                                           04140042
         DC    AL1(0)                                                   04230042
         AIF   ('&DATA(1)' EQ '').CKDTABS                               04320042
         AIF   (&DATA(1) EQ &DB).CKDTABS                                04410042
&DB      SETA  &DATA(1)                                                 04500042
         AGO   .AA                                                      04590042
.CKDTABS AIF   ('&DATA(2)' EQ '').NCDATA                                04680042
         AIF   (&DATA(2) EQ &DT).NCDATA                                 04770042
         AGO   .CC                                                      04860042
.AA      AIF   ('&DATA(2)' EQ '').BB                                    04950042
         AIF   (&DATA(2) EQ &DT).BB                                     05040042
.CC      ANOP                                                           05130042
&DT      SETA  &DATA(2)                                                 05220042
.BB      DC    XL2'FFFE'                                                05310042
         DC    FL1'&DB'                                                 05400042
         DC    FL1'&DT'                                                 05490042
&NRENTS  SETA  &NRENTS+1                                                05580042
.NCDATA  ANOP                                                           05670042
         AIF   ('&LABEL(1)' EQ '').CKLTABS                              05760042
         AIF   (&LABEL(1) EQ &LB).CKLTABS                               05850042
&LB      SETA  &LABEL(1)                                                05940042
         AGO   .AAA                                                     06030042
.CKLTABS AIF   ('&LABEL(2)' EQ '').NCLABEL                              06120042
         AIF   (&LABEL(2) EQ &LT).NCLABEL                               06210042
         AGO   .CCC                                                     06300042
.AAA     AIF   ('&LABEL(2)' EQ '').BBB                                  06390042
         AIF   (&LABEL(2) EQ &LT).BBB                                   06480042
.CCC     ANOP                                                           06570042
&LT      SETA  &LABEL(2)                                                06660042
.BBB     DC    XL2'FFFF'                                                06750042
         DC    FL1'&LB'                                                 06840042
         DC    FL1'&LT'                                                 06930042
&NRENTS  SETA  &NRENTS+1                                                07020042
.NCLABEL ANOP                                                           07110042
         AIF   ('&SKIP' NE '').CONT                                     07200042
         AIF   (&TEST EQ 0).NOCHANG                                     07290042
&S       SETA  &LASTCC                                                  07380042
         AGO   .DEFAULT                                                 07470042
.CONT    ANOP                                                           07560042
         AIF   (&TEST EQ 0).AB                                          07650042
&S       SETA  &SKIP                                                    07740042
.DEFAULT ANOP                                                           07830042
         ORG   &CARRCON+3                                               07920042
         DC    AL.3(0),AL.2(&S),AL.3(1)                                 08010042
         ORG                                                            08100042
&LASTCC  SETA  &S                                                       08190042
&TEST    SETB  0                                                        08280042
         AGO   .DD                                                      08370042
.AB      AIF   (&SKIP EQ &LASTCC).NOCHANG                               08460042
A&SYSNDX DC    XL2'FFFB'                                                08550042
         DC    AL.3(0),AL.2(&SKIP),AL.3(1)                              08640042
         DC    FL1'9'                                                   08730042
&LASTCC  SETA  &SKIP                                                    08820042
&TEST    SETB  1                                                        08910042
&CARRCON SETC  'A&SYSNDX'                                               09000042
&NRENTS  SETA  &NRENTS+1                                                09090042
.DD      ANOP                                                           09180042
.NOCHANG ANOP                                                           09270042
         MEND                                                           09360042
         EJECT                                                          09450042
         SPACE 2                                                        09540042
*  ROUTINE MACRO     ROUTINE MACRO     ROUTINE MACRO     ROUTINE MACRO* 09630042
         MACRO                                                          09720042
&NAME    ROUTINE &LOGITEM,&RNAME                                        09810042
         GBLC  &DSECT,&CSECT                                            09900042
         GBLC  &ITEM(1000)                                              09990042
         GBLA  &SHIFT(1000),&ITEMNBR                                    10080042
         GBLA  &NRENTS                                                  10170042
         LCLA  &ISHIFT,&NDX                                             10260042
.LOOP    ANOP                                                           10350042
&NDX     SETA  &NDX+1                                                   10440042
         AIF   ('&ITEM(&NDX)' EQ '&LOGITEM').FOUND                      10530042
         AIF   (&NDX LT &ITEMNBR).LOOP                                  10620042
         MNOTE *,'LOG ITEM NOT DEFINED'                                 10710042
         MEXIT                                                          10800042
.FOUND   ANOP                                                           10890042
&ISHIFT  SETA  &SHIFT(&NDX)                                             10980042
&NAME    DC    AL.12(&LOGITEM-&DSECT),XL.4'D'                           11070042
         DC    AL.4(&ISHIFT),AL.12(&RNAME-&CSECT)                       11160042
&NRENTS  SETA  &NRENTS+1                                                11250042
         MEND                                                           11340042
*  DSGEN MACRO     DSGEN MACRO     DSGEN MACRO     DSGEN MACRO        * 11430042
         SPACE 2                                                        11520042
         MACRO                                                          11610042
&NAME    DSGEN &X1,&X2,&X3,&X4,&X5,&X6,&X7,&X8,&X9,&X10,&X11,&X12,&X13,X11700042
               &X14,&X15,&X16,&X17,&X18,&X19,&X20,&X21,&X22,&X23,&X24, X11790042
               &X25,&X26,&X27,&X28,&X29,&X30,&X31,&X32                  11880042
.*                            THIS MACRO GENERATES ONE DSECT WORD       11970042
.*                                 FORMATTED FOR THE SUBJECT LOG RECORD 12060042
.*                                 EACH OPERAND HAS TWO SUB LISTS. THE  12150042
.*                                 FIRST IS THE NAME OF THE LOG ITEM    12240042
.*                                 WHILE THE SECOND IS THE # OF BITS TO 12330042
.*                                 ALLOCATE FOR THIS ITEM. ITEMS MUST   12420042
.*                                 BE DEFINED CONTIGUOUSLY WITHOUT GAPS 12510042
.*                                 UNUSED BIT GROUPS MUST BE GIVEN      12600042
.*                                 DUMMY NAMES. THE NAMES PROVIDED FOR  12690042
.*                                 THE LOG ITEMS MAY THEN BE USED IN    12780042
.*                                 THE CONVERSION MACRO INSTRUCTIONS.   12870042
         GBLC &ITEM(1000)                                               12960042
         GBLA &ITEMNBR,&BITS(1000),&SHIFT(1000)                         13050042
         LCLC  &SYMBOL                                                  13140042
         LCLA  &OP,&COUNT,&BYTE                                         13230042
.LOOP    ANOP                                                           13320042
&OP      SETA  &OP+1                                                    13410042
&ITEMNBR SETA  &ITEMNBR+1                                               13500042
&SYMBOL  SETC  '&SYSLIST(&OP,1)'                                        13590042
         AIF   ('&SYSLIST(&OP,2)' NE '').OK1                            13680042
         MNOTE *,'NULL BIT COUNT FIELD'                                 13770042
         MEXIT                                                          13860042
.OK1     ANOP                                                           13950042
         AIF   ('&SYMBOL' NE '').OK                                     14040042
         MNOTE 'LOG ITEM SYMBOL NOT PROVIDED'                           14130042
         AGO   .CNT                                                     14220042
.OK      ANOP                                                           14310042
         AIF   ('&SYMBOL'(1,1) EQ '''').CNT                *TEMP*       14400042
&SYMBOL  EQU   *+&BYTE                                                  14490042
&ITEM(&ITEMNBR)  SETC '&SYSLIST(&OP,1)'                                 14580042
&BITS(&ITEMNBR) SETA &SYSLIST(&OP,2)                                    14670042
&SHIFT(&ITEMNBR) SETA &COUNT-&BYTE*8                                    14760042
.CNT     ANOP                                                           14850042
&COUNT   SETA  &COUNT+&SYSLIST(&OP,2)                                   14940042
&BYTE    SETA  &COUNT/8                                                 15030042
         AIF (&OP LT N'&SYSLIST).LOOP                                   15120042
         AIF   (&COUNT NE 32).NOT32                                     15210042
&NAME    DS    4C                                                       15300042
         MEXIT                                                          15390042
.NOT32   AIF   (&COUNT NE 64).ERR                                       15480042
&NAME    DS    8C                                                       15570042
         MEXIT                                                          15660042
.ERR     MNOTE '**BIT COUNT FIELDS DO NOT TOTAL 32 OR 64**'             15750042
         MEND                                                           15840042
         MACRO                                                          15930042
         LINEND                                                         16020042
.*                            THIS MACRO IS USED ONLY BY THE LINE       16110042
.*                                 MACRO TO SET THE NUMBER OF ENTRIES   16200042
.*                                 ASSOCIATED WITH EACH LINE.           16290042
         GBLA  &NRENTS                                                  16380042
         GBLC &NRENTSX                                                  16470042
         ORG   &NRENTSX                                                 16560042
         DC    FL1'&NRENTS'                                             16650042
         ORG                                                            16740042
&NRENTS  SETA  0                                                        16830042
B&SYSNDX EQU   *                                                        16920042
&NRENTSX SETC  'B&SYSNDX'                                               17010042
         MEND                                                           17100042
         SPACE 2                                                        17190042
         EJECT                                                          17280042
*  LABEL MACRO     LABEL MACRO     LABEL MACRO     LABEL MACRO        * 17370042
         SPACE 2                                                        17460042
         MACRO                                                          17550042
&NAME    LABEL &LABEL1,&LABEL2,&LABEL3,&LABEL4,&LABEL5,&LABEL6,        C17640042
               &LABEL7,&LABEL8                                          17730042
.*                            THIS MACRO ALLOWS UP TO ACHT LABELS TO    17820042
.*                                 BE SPECIFIED FOR A GIVEN LINE. THE   17910042
.*                                 LABELS SHOULD BE ENCLOSED IN QUOTA-  18000042
.*                                 TION MARKS. THE COLUMN AND LINE END  18090042
.*                                 CONTROLS WILL BE INSERTED BY THE     18180042
.*                                 MACRO. OMITTED OPERANDS MEAN NO      18270042
.*                                 LABEL REQUIRED FOR RESPECTIVE        18360042
.*                                 COLUMN. THIS MACRO WILL ALSO ALERT   18450042
.*                                 THE PROGRAMMER TO EXACTLY WHERE THE  18540042
.*                                 TABLE MUST BE BROKEN IF NECESSARY    18630042
.*                                 TO AVOID EXCEEDING THE MAXIMUM LIMIT 18720042
         GBLC &LABELS(2000)                                             18810042
         GBLC  &LBL(100)                                                18900042
         GBLA  &LBLCTR(100)                                             18990042
         GBLA  &LABELNR                                                 19080042
         GBLA  &NRENTS,&LPTR                                            19170042
         LCLC  &MARGIN,&TACK                                            19260042
         LCLC  &TEXT                                                    19350042
         LCLA  &OP,&K,&START,&NRCHAR,&REMAIN                            19440042
&MARGIN  SETC  '*'                                                      19530042
         AIF   ('&NAME' EQ '').LOOPOUT                                  19620042
&LPTR    SETA  &LPTR+1                                                  19710042
&LBL(&LPTR) SETC '&NAME'                                                19800042
&LBLCTR(&LPTR) SETA &LABELNR+1                                          19890042
.LOOPOUT ANOP                                                           19980042
&OP      SETA  &OP+1                                                    20070042
&K       SETA  K'&SYSLIST(&OP)                                          20160042
         AIF (&K GE 2).NORM                                             20250042
&K       SETA  2                                                        20340042
.NORM    ANOP                                                           20430042
&START   SETA  2                                                        20520042
         AIF (&OP LT N'&SYSLIST).NOTLAST                                20610042
&MARGIN  SETC  '$'                                                      20700042
.NOTLAST ANOP                                                           20790042
&NRCHAR  SETA  8                                                        20880042
&TACK    SETC  ''                                                       20970042
.LOOPIN  ANOP                                                           21060042
&REMAIN  SETA  &K-&START                                                21150042
         AIF (&REMAIN GE 8).MORE                                        21240042
&TACK    SETC  '&MARGIN'                                                21330042
&NRCHAR  SETA  &REMAIN                                                  21420042
.MORE    ANOP                                                           21510042
&TEXT    SETC  ''                                                       21600042
         AIF (&REMAIN EQ 0).ENDTEXT                                     21690042
&TEXT    SETC  '&SYSLIST(&OP)'(&START,&NRCHAR)                          21780042
.ENDTEXT ANOP                                                           21870042
&LABELNR SETA  &LABELNR+1                                               21960042
&LABELS(&LABELNR) SETC '&TEXT'.'&TACK'                                  22050042
&START   SETA  &START+8                                                 22140042
         AIF ('&TACK' EQ '').LOOPIN                                     22230042
         AIF ('&TACK' EQ '*').LOOPOUT                                   22320042
         MEND                                                           22410042
         SPACE 2                                                        22500042
         MACRO                                                          22590042
         LSTART                                                         22680042
.*                            THIS MACRO IS ISSUED WHEN THE LABEL AREA  22770042
.*                                 OF THE TABLE IS TO BEGIN.            22860042
         GBLC &LABELS(2000)                                             22950042
         GBLA  &LABELNR                                                 23040042
         GBLC  &LBL(100)                                                23130042
         GBLA  &LBLCTR(100)                                             23220042
         LCLA  &NDX,&CTR                                                23310042
         LINEND                                                         23400042
&CTR     SETA  1                                                        23490042
.LOOP    ANOP                                                           23580042
&NDX     SETA  &NDX+1                                                   23670042
         AIF   (&LBLCTR(&CTR) NE &NDX).NOLBL                            23760042
&LBL(&CTR) DC  C'&LABELS(&NDX)'                                         23850042
&CTR     SETA  &CTR+1                                                   23940042
         AGO   .LOOPCTL                                                 24030042
.NOLBL   ANOP                                                           24120042
         DC    C'&LABELS(&NDX)'                                         24210042
.LOOPCTL AIF   (&NDX LT &LABELNR).LOOP                                  24300042
         MEND                                                           24390042
         SPACE 2                                                        24480042
*  BIN MACRO     BIN MACRO     BIN MACRO     BIN MACRO     BIN MACRO  * 24570042
         SPACE 2                                                        24660042
         MACRO                                                          24750042
         BIN   &LOGITEM,&SKIP$OR                                        24840042
.*                                 &LOGITEM - NAME OF ITEM IN LOG       24930042
.*                                      RECORD DSECT                    25020042
.*                                 &SKIP$OR - NBR OF SPACES TO SKIP ON  25110042
.*                                 MULTIPLE PRINT OR NBR OF SPACES      25200042
.*                                      TO BACK UP FROM COLUMN FOR      25290042
.*                                      START OF PRINTING. THE LETTER   25380042
.*                                      B PRECEEDS THE NUMBER (B5) IF   25470042
.*                                      THE LATTER IS DESIRED. OMISSION 25560042
.*                                      OF THIS OPERAND FORCES OPTION 2 25650042
.*                                      WITH BACKUP SPACING EQUAL TO    25740042
.*                                 THE NUMBER OF BITS IN THE ITEM       25830042
.*                                 DEFINITION (VIA MACRO 'DSGEN').      25920042
.*                            A LIMIT OF 15 BITS IS IMPOSED FOR THE     26010042
.*                                 TOTAL NUMBER OF BITS TO PRINT.       26100042
         GBLC &ITEM(1000)                                               26190042
         GBLA &ITEMNBR,&BITS(1000),&SHIFT(1000),&NRENTS                 26280042
         GBLC  &DSECT                                                   26370042
         LCLB  &B                                                       26460042
         LCLA  &IBITS,&NDX,&ISHIFT,&K                                   26550042
         LCLA  &TEMP,&T                                                 26640042
         LCLC  &S                                                       26730042
.LOOP    ANOP                                                           26820042
&NDX     SETA  &NDX+1                                                   26910042
         AIF   ('&ITEM(&NDX)' EQ '&LOGITEM').FOUND                      27000042
         AIF   (&NDX LT &ITEMNBR).LOOP                                  27090042
         MNOTE *,'YOU BLEW IT'                                          27180042
         ROUTINE DUM,SKIPPER                                            27270042
         MEXIT                                                          27360042
.FOUND   ANOP                                                           27450042
&ISHIFT  SETA  &SHIFT(&NDX)                                             27540042
&IBITS   SETA  &BITS(&NDX)                                              27630042
&T       SETA  &IBITS-1                                                 27720042
&B       SETB  0                                                        27810042
         AIF   ('&SKIP$OR' EQ '').BACKUP                                27900042
&K       SETA  K'&SKIP$OR                                               27990042
&B       SETB  ('&SKIP$OR'(1,1) EQ 'B')                                 28080042
&S       SETC  '&SKIP$OR'(&B+1,&K-&B)                                   28170042
&T       SETA  &S                                                       28260042
.BACKUP  ANOP                                                           28350042
&NRENTS  SETA  &NRENTS+1                                                28440042
&TEMP    SETA  &ISHIFT                                                  28530042
A&SYSNDX DC    AL.12(&LOGITEM-&DSECT),XL.4'&TEMP'                       28620042
         AIF (&IBITS EQ 1 AND &B EQ 0).OUT                              28710042
         ORG   A&SYSNDX                                                 28800042
&B       SETB  1                                                        28890042
         DC    AL.12(&LOGITEM-&DSECT),XL.4'C'                           28980042
         DC    BL.1'&B',AL.7(&T),AL.4(&IBITS),FL.4'&ISHIFT'             29070042
.OUT     ANOP                                                           29160042
         MEND                                                           29250042
         EJECT                                                          29340042
*  HEX MACRO     HEX MACRO     HEX MACRO    HEXN MACRO     HEX MACRO  * 29430042
         SPACE 2                                                        29520042
         MACRO                                                          29610042
         HEX   &LOGITEM,&SKIP$OR,&BYTES                                 29700042
.*                            THIS MACRO FACILITATES GENERATION OF THE  29790042
.*                                 TABLE ENTRIES SPECIFYING HEX TYPE    29880042
.*                                 CONVERSIONS.                         29970042
.*                            &LOGITEM - NAME OF DATA ITEM TO BE        30060042
.*                                 CONVERTED                            30150042
.*                            &SKIP$OR - NUMBER OF SPACES TO SKIP ON    30240042
.*                                 MULTIPLE PRINT OR NBR OF SPACES TO   30330042
.*                                 BACK UP FROM COLUMN FOR START OF     30420042
.*                                 PRINTING. THE LETTER B PRECEEDS THE  30510042
.*                                 NUMBER (B8) IF THE LATTER OPTION IS  30600042
.*                                 DESIRED. OMISSION OF THIS OPERAND    30690042
.*                                 FORCES OPTION 2 WITH BACKUP SPACING  30780042
.*                                 EQUAL TO THE NUMBER OF BYTES SPECI-  30870042
.*                                 FIED BY THE NEXT OPERAND (TWICE THIS 30960042
.*                                 NUMBER IF SUFFIX IS EXPLICITLY OR    31050042
.*                                 IMPLICITLY B).                       31140042
.*                            &BYTES - NUMBER OF TOTAL INPUT BYTES TO   31230042
.*                                 PROCESS. THIS NUMBER IS SUFFIXED     31320042
.*                                 WITH AN L,R, OR B TO STIPULATE       31410042
.*                                 PRINTING OF THE LEFT HALF, RIGHT     31500042
.*                                 HALF, OR BOTH HALVES OF THE BYTE     31590042
.*                                 RESPECTIVELY. OMISSION OF THIS       31680042
.*                                 OPERAND DEFAULTS TO B WITH THE NUM-  31770042
.*                                 BER OF BYTES EQUAL TO THE ITEM LNGTH 31860042
.*                            A NEW ENTRY IS GENERATED ONLY WHEN NECES- 31950042
.*                                 SARY. THIS MACRO MUST BE THE FIRST   32040042
.*                                 MACRO INSTRUCTION ISSUED FOR THE     32130042
.*                                 SUBJECT LINE(S).                     32220042
         GBLC &ITEM(1000),&DSECT                                        32310042
         GBLA &ITEMNBR,&BITS(1000),&SHIFT(1000),&NRENTS                 32400042
         LCLB  &B                                                       32490042
         LCLA  &IBITS,&NDX,&ISHIFT,&K,&T,&CODE,&BYTESP                  32580042
         LCLC  &S,&LETTER                                               32670042
.LOOP    ANOP                                                           32760042
&NDX     SETA  &NDX+1                                                   32850042