         SPACE 2                                                        00058042
*   MADRID/WINCHESTER SVS REL2 1.7                             @Y17ASRB 00068042
*A001080                                                       @Y17ASRB 00078042
*  LINE MACRO     LINE MACRO     LINE MACRO     LINE MACRO            * 00116042
         MACRO                                                          00174042
&NAME    LINE  &DATA,&LABEL,&SKIP=                                      00232042
.*                            THIS MACRO ESTABLISHES THE MARGINS OR     00290042
.*                                 COLUMN SETTINGS FOR EACH LINE. IT    00348042
.*                                 GENERATES NECESSARY CARRIAGE CONTROL 00406042
.*                                 ENTRIES. LASTLY IT DETERMINES THE    00464042
.*                                 NUMBER OF ENTRIES ASSOCIATED WITH    00522042
.*                                 THE PREVIOUS LINE AND STORES THAT #  00580042
.*                                 INTO THE APPROPRIATE BYTE.           00638042
.*                            &DATA(1) - CHARACTER POSITION TO BEGIN    00696042
.*                                 DATA.                                00754042
.*                            &DATA(2) - # OF SPACES BETWEEN SUCCESSIVE 00812042
.*                                 DATA COLUMN STARTING CHARACTERS.     00870042
.*                            &LABEL(1) - CHAR. POS. TO BEGIN LABELS.   00928042
.*                            &LABEL(2) - # SPACES BETWEEN LINE'S LABEL 00986042
.*                                 STARTING CHARACTERS.                 01044042
.*                            &SKIP= - # OF LINES TO ADVANCE CARRIAGE   01102042
.*                                 TO BEGIN NEXT PRINTED LINE.          01160042
.*                            NEW ENTRIES ARE GENERATED ONLY WHEN       01218042
.*                                 NECESSARY. OMISSION OF ITEMS MEANS   01276042
.*                                 THEY HAVE NOT CHANGED SINCE PREVIOUS 01334042
.*                                 SETTINGS. A LINE MACRO IS REQUIRED   01392042
.*                                 FOR EACH PRINTED LINE. IF NO SETTING 01450042
.*                                 CHANGES ARE REQUIRED ALL OPERANDS    01508042
.*                                 ARE OMITTED IN WHICH CASE ONLY THE   01566042
.*                                 # OF ENTRIES FOR THE PREVIOUS LINE   01624042
.*                                 IS COMPUTED. THIS MACRO MUST BE THE  01682042
.*                                 FIRST MACRO INSTRUCTION ISSUED FOR   01740042
.*                                 THE SUBJECT LINE                     01798042
         GBLA  &DB,&DT,&LB,&LT,&NRENTS                                  01856042
         GBLA  &LASTCC,&INITIAL                                         01914042
         GBLC  &NRENTSX                                                 01972042
         GBLC  &CARRCON                                                 02030042
         GBLB  &TEST                                                    02088042
         LCLA  &S                                                       02146042
&NAME    DS    0C                                                       02204042
         AIF   (&INITIAL EQ 0).FIRSTLN                                  02262042
         LINEND                                                         02320042
         AGO   .NTFIRST                                                 02378042
.FIRSTLN ANOP                                                           02436042
&NRENTSX SETC  'N&SYSNDX'                                               02494042
&INITIAL SETA  1                                                        02552042
N&SYSNDX EQU   *                                                        02610042
.NTFIRST ANOP                                                           02668042
         DC    AL1(0)                                                   02726042
         AIF   ('&DATA(1)' EQ '').CKDTABS                               02784042
         AIF   (&DATA(1) EQ &DB).CKDTABS                                02842042
&DB      SETA  &DATA(1)                                                 02900042
         AGO   .AA                                                      02958042
.CKDTABS AIF   ('&DATA(2)' EQ '').NCDATA                                03016042
         AIF   (&DATA(2) EQ &DT).NCDATA                                 03074042
         AGO   .CC                                                      03132042
.AA      AIF   ('&DATA(2)' EQ '').BB                                    03190042
         AIF   (&DATA(2) EQ &DT).BB                                     03248042
.CC      ANOP                                                           03306042
&DT      SETA  &DATA(2)                                                 03364042
.BB      DC    XL2'FFFE'                                                03422042
         DC    FL1'&DB'                                                 03480042
         DC    FL1'&DT'                                                 03538042
&NRENTS  SETA  &NRENTS+1                                                03596042
.NCDATA  ANOP                                                           03654042
         AIF   ('&LABEL(1)' EQ '').CKLTABS                              03712042
         AIF   (&LABEL(1) EQ &LB).CKLTABS                               03770042
&LB      SETA  &LABEL(1)                                                03828042
         AGO   .AAA                                                     03886042
.CKLTABS AIF   ('&LABEL(2)' EQ '').NCLABEL                              03944042
         AIF   (&LABEL(2) EQ &LT).NCLABEL                               04002042
         AGO   .CCC                                                     04060042
.AAA     AIF   ('&LABEL(2)' EQ '').BBB                                  04118042
         AIF   (&LABEL(2) EQ &LT).BBB                                   04176042
.CCC     ANOP                                                           04234042
&LT      SETA  &LABEL(2)                                                04292042
.BBB     DC    XL2'FFFF'                                                04350042
         DC    FL1'&LB'                                                 04408042
         DC    FL1'&LT'                                                 04466042
&NRENTS  SETA  &NRENTS+1                                                04524042
.NCLABEL ANOP                                                           04582042
         AIF   ('&SKIP' NE '').CONT                                     04640042
         AIF   (&TEST EQ 0).NOCHANG                                     04698042
&S       SETA  &LASTCC                                                  04756042
         AGO   .DEFAULT                                                 04814042
.CONT    ANOP                                                           04872042
         AIF   (&TEST EQ 0).AB                                          04930042
&S       SETA  &SKIP                                                    04988042
.DEFAULT ANOP                                                           05046042
         ORG   &CARRCON+3                                               05104042
         DC    AL.3(0),AL.2(&S),AL.3(1)                                 05162042
         ORG                                                            05220042
&LASTCC  SETA  &S                                                       05278042
&TEST    SETB  0                                                        05336042
         AGO   .DD                                                      05394042
.AB      AIF   (&SKIP EQ &LASTCC).NOCHANG                               05452042
A&SYSNDX DC    XL2'FFFB'                                                05510042
         DC    AL.3(0),AL.2(&SKIP),AL.3(1)                              05568042
         DC    FL1'9'                                                   05626042
&LASTCC  SETA  &SKIP                                                    05684042
&TEST    SETB  1                                                        05742042
&CARRCON SETC  'A&SYSNDX'                                               05800042
&NRENTS  SETA  &NRENTS+1                                                05858042
.DD      ANOP                                                           05916042
.NOCHANG ANOP                                                           05974042
         MEND                                                           06032042
         EJECT                                                          06090042
         SPACE 2                                                        06148042
*  ROUTINE MACRO     ROUTINE MACRO     ROUTINE MACRO     ROUTINE MACRO* 06206042
         MACRO                                                          06264042
&NAME    ROUTINE &LOGITEM,&RNAME                                        06322042
         GBLC  &DSECT,&CSECT                                            06380042
         GBLC  &ITEM(1000)                                              06438042
         GBLA  &SHIFT(1000),&ITEMNBR                                    06496042
         GBLA  &NRENTS                                                  06554042
         LCLA  &ISHIFT,&NDX                                             06612042
.LOOP    ANOP                                                           06670042
&NDX     SETA  &NDX+1                                                   06728042
         AIF   ('&ITEM(&NDX)' EQ '&LOGITEM').FOUND                      06786042
         AIF   (&NDX LT &ITEMNBR).LOOP                                  06844042
         MNOTE *,'LOG ITEM NOT DEFINED'                                 06902042
         MEXIT                                                          06960042
.FOUND   ANOP                                                           07018042
&ISHIFT  SETA  &SHIFT(&NDX)                                             07076042
&NAME    DC    AL.12(&LOGITEM-&DSECT),XL.4'D'                           07134042
         DC    AL.4(&ISHIFT),AL.12(&RNAME-&CSECT)                       07192042
&NRENTS  SETA  &NRENTS+1                                                07250042
         MEND                                                           07308042
         EJECT                                                          07366042
*        DSGEN  MACRO        D S G E N  M A C R O          DSGEN MACRO  07386042
         MACRO                                                          07406042
&NAME    DSGEN                                                          07426042
.*                            THIS MACRO GENERATES ONE DSECT WORD       07446042
.*                                 FORMATTED FOR THE SUBJECT LOG RECORD 07466042
.*                                 EACH OPERAND HAS TWO SUB LISTS. THE  07486042
.*                                 FIRST IS THE NAME OF THE LOG ITEM    07506042
.*                                 WHILE THE SECOND IS THE # OF BITS TO 07526042
.*                                 ALLOCATE FOR THIS ITEM. ITEMS MUST   07546042
.*                                 BE DEFINED CONTIGUOUSLY WITHOUT GAPS 07566042
.*                                 UNUSED BIT GROUPS MUST BE GIVEN      07586042
.*                                 DUMMY NAMES. THE NAMES PROVIDED FOR  07606042
.*                                 THE LOG ITEMS MAY THEN BE USED IN    07626042
.*                                 THE CONVERSION MACRO INSTRUCTIONS.   07646042
         GBLA  &BITS(1000),&ITEMNBR,&SHIFT(1000)                        07666042
         GBLC  &ITEM(1000)                                              07686042
         LCLB  &ONLY1,&CTIND                                            07706042
         LCLA  &START1,&START2,&END1,&END2                              07726042
         LCLC  &SYMBOL,&EQUSYM                                          07746042
         LCLA  &OP,&COUNT,&BYTE,&EQUCNT                                 07766042
         ACTR  500000                                                   07786042
.START   AIF   (N'&SYSLIST(&OP+1) LT 3).LOOP                            07806042
         AIF   ('&SYSLIST(&OP+1,3)' EQ 'EQU').LOOP     TEST FOR EQU     07826042
  AIF   ('&SYSLIST(&OP+1,3)' EQ '' OR '&SYSLIST(&OP+1,4)' EQ '').ERR1   07846042
         AIF   ('&SYSLIST(&OP+1,3)' GT '&SYSLIST(&OP+1,4)').ERR3        07866042
&START1  SETA  &SYSLIST(&OP+1,3)        GET START COUNT OF 1            07886042
&START2  SETA  &SYSLIST(&OP+1,4)        GET FIRST END COUNT             07906042
         AGO   .SET2A                   BRANCH AROUND                   07926042
.ERR1    MNOTE '**FIRST SYMBOL CONCATENATION INCOMPLETE**'              07946042
         MEXIT                                                          07966042
.SET2A   AIF   ('&SYSLIST(&OP+1,5)' EQ ''AND '&SYSLIST(&OP+1,6)' EQ '' X07986042
               ).SET2                   TEST FOR NO SECOND              08006042
  AIF   ('&SYSLIST(&OP+1,5)' EQ '' OR '&SYSLIST(&OP+1,6)' EQ '').ERR2   08026042
         AIF   ('&SYSLIST(&OP+1,5)' GT '&SYSLIST(&OP+1,6)').ERR3        08046042
&END1    SETA  &SYSLIST(&OP+1,5)        GET START COUNT OF 2            08066042
&END2    SETA  &SYSLIST(&OP+1,6)        GET END COUNT OF 2              08086042
         AGO   .LOOP                                                    08106042
.SET2    ANOP                                                           08126042
&ONLY1   SETB  1                        INDICATE ONLY ONE CONCATENATION 08146042
         AGO   .LOOP                                                    08166042
.ERR2    MNOTE '**SECOND SYMBOL CONCATENATION INCOMPLETE**'             08186042
         MEXIT                                                          08206042
.ERR3    MNOTE '**START GREATER THAN END CONCATENATION**'               08226042
         MEXIT                                                          08246042
.LOOP    ANOP                                                           08266042
&OP      SETA  &OP+1                                                    08286042
         AIF   (&OP GT N'&SYSLIST).DONE      TEST IF ALL DONE           08306042
&ITEMNBR SETA  &ITEMNBR+1                                               08326042
         AIF   ('&SYSLIST(&OP,2)' NE '').OK1                            08346042
         MNOTE '**NULL BIT COUNT FIELD**'                               08366042
         MEXIT                                                          08386042
.OK1     ANOP                                                           08406042
&SYMBOL  SETC  '&SYSLIST(&OP,1)'                                        08426042
         AIF   ('&SYMBOL' NE '').OK                                     08446042
*              *****     LOG ITEM SYMBOL NOT PROVIDED     *****         08466042
         AIF   ('&SYSLIST(&OP,3)' NE 'EQU').CNT                         08486042
         AGO   .START                   GET NEXT                        08506042
.OK      AIF   (N'&SYSLIST(&OP) LT 3).NO3    TEST FOR OLD FORMAT        08526042
         AIF   ('&SYSLIST(&OP,3)' EQ 'EQU').EQU   TEST FOR EQU          08546042
         AIF   (&ONLY1).OK2             TEST FOR ONLY ONE CONCAT        08566042
&SYMBOL  SETC  '&SYMBOL.&START1.&END1'       GET 1 AND 2 CONCAT         08586042
         AGO   .NO3                     BRANCH AROUND                   08606042
.OK2     ANOP                                                           08626042
&SYMBOL  SETC  '&SYMBOL.&START1'        GET 1 CONCATENATED              08646042
.NO3     ANOP                                                           08666042
&SYMBOL  EQU   *+&BYTE                                                  08686042
&ITEM(&ITEMNBR) SETC '&SYMBOL'          GET LABEL IN GLOBAL             08706042
&BITS(&ITEMNBR) SETA &SYSLIST(&OP,2)                                    08726042
&SHIFT(&ITEMNBR) SETA &COUNT-&BYTE*8                                    08746042
.CNT     ANOP                                                           08766042
&CTIND   SETB  1                        SET COUNT INDICATOR             08786042
&COUNT   SETA  &COUNT+&SYSLIST(&OP,2)                                   08806042
&BYTE    SETA  &COUNT/8                                                 08826042
         AIF   (N'&SYSLIST(&OP) LT 3).START  TEST FOR OLD FORMAT        08846042
         AIF   (&ONLY1).TSTST           TEST FOR ONLY ONE CONCAT        08866042
         AIF   (&END1 EQ &END2).TSTST   TEST FOR SECOND END             08886042
&END1    SETA  &END1+1                  INCREMENT COUNT                 08906042
&OP      SETA  &OP-1                    DECREMENT INCREMENT             08926042
         AGO   .LOOP                    GENERATE NEXT                   08946042
.TSTST   ANOP                                                           08966042
         AIF   (&START1 EQ &START2).LPDONE   TEST FOR END               08986042
         AIF   (&ONLY1).NSET1           TEST FOR ONLY ONE CONCAT        09006042
&END1    SETA  &SYSLIST(&OP,5)          RE-INIT SECOND START COUNT      09026042
.NSET1   ANOP                                                           09046042
&OP      SETA  &OP-1                    DECREMENT INDEX                 09066042
&START1  SETA  &START1+1                INCREMENT FIRST COUNT           09086042
         AGO   .LOOP                    GO DO NEXT                      09106042
.LPDONE  ANOP                                                           09126042
&ONLY1   SETB  0                        CLEAR INDICATOR                 09146042
         AGO   .START                   GO TEST FOR MORE SUB-LISTS      09166042
.DONE    AIF   (&COUNT-&COUNT/8*8 NE 0).ERR  TEST FOR MULTIPLE OF EIGHT 09186042
         AIF   (&CTIND EQ 0).END        NO DS IF NO COUNT               09206042
&COUNT   SETA  &COUNT/8                 GET NUMBER OF BYTES             09226042
&NAME    DS    &COUNT.C                                                 09246042
.END     MEXIT                                                          09266042
.ERR     MNOTE '**BIT COUNT FLDS DO NOT TOTAL MULTIPLE OF 8**'          09286042
         MEXIT                                                          09306042
.EQU     AIF   ('&SYSLIST(&OP,4)' NE '').EQU1     TEST FOR NULL LABEL   09326042
.ERR4    MNOTE '**EQU OPERAND OMITTED OR NOT FOUND**'                   09346042
         MEXIT                                                          09366042
.EQU1    AIF   (&SYSLIST(&OP,2) LT 16).EQU2  COUNT OVER FIFTEEN         09386042
*****               THE FOLLOWING STATEMENT                *****        09406042
*****     NUMBER OF BITS EXCEED 15 - DO NOT USE AS BIN     *****        09426042
.EQU2    ANOP                                                           09446042
&EQUCNT  SETA  0                        CLEAR COUNTER                   09466042
&EQUSYM  SETC  '&SYSLIST(&OP,4)'        GET EQU OPERAND                 09486042
.EQULOP  ANOP                                                           09506042
&EQUCNT  SETA  &EQUCNT+1                INCREMENT INDEX                 09526042
         AIF   ('&ITEM(&EQUCNT)' EQ '&EQUSYM').EQUOUT  LABEL FOUND?     09546042
         AIF   (&EQUCNT EQ &ITEMNBR).ERR4    ALL TESTED?                09566042
         AGO   .EQULOP                  NO-GET NEXT                     09586042
.EQUOUT  ANOP                                                           09606042
&ITEM(&ITEMNBR) SETC '&SYMBOL'          GET LABEL NAME                  09626042
&BITS(&ITEMNBR) SETA &SYSLIST(&OP,2)    GET NUMBER OF BITS              09646042
&SHIFT(&ITEMNBR) SETA &SHIFT(&EQUCNT)   GET SHIFT COUNT                 09666042
&SYMBOL  EQU   &EQUSYM                  THIS SYMBOL EQUATED             09686042
         AGO   .START                   RETURN FOR NEXT                 09706042
         MEND                                                           09726042
         EJECT                                                          09746042
         MACRO                                                          10266042
         LINEND                                                         10324042
.*                            THIS MACRO IS USED ONLY BY THE LINE       10382042
.*                                 MACRO TO SET THE NUMBER OF ENTRIES   10440042
.*                                 ASSOCIATED WITH EACH LINE.           10498042
         GBLA  &NRENTS                                                  10556042
         GBLC &NRENTSX                                                  10614042
         ORG   &NRENTSX                                                 10672042
         DC    FL1'&NRENTS'                                             10730042
         ORG                                                            10788042
&NRENTS  SETA  0                                                        10846042
B&SYSNDX EQU   *                                                        10904042
&NRENTSX SETC  'B&SYSNDX'                                               10962042
         MEND                                                           11020042
         SPACE 2                                                        11078042
         EJECT                                                          11136042
*  LABEL MACRO     LABEL MACRO     LABEL MACRO     LABEL MACRO        * 11194042
         SPACE 2                                                        11252042
         MACRO                                                          11310042
&NAME    LABEL &LABEL1,&LABEL2,&LABEL3,&LABEL4,&LABEL5,&LABEL6,        C11368042
               &LABEL7,&LABEL8                                          11426042
.*                            THIS MACRO ALLOWS UP TO ACHT LABELS TO    11484042
.*                                 BE SPECIFIED FOR A GIVEN LINE. THE   11542042
.*                                 LABELS SHOULD BE ENCLOSED IN QUOTA-  11600042
.*                                 TION MARKS. THE COLUMN AND LINE END  11658042
.*                                 CONTROLS WILL BE INSERTED BY THE     11716042
.*                                 MACRO. OMITTED OPERANDS MEAN NO      11774042
.*                                 LABEL REQUIRED FOR RESPECTIVE        11832042
.*                                 COLUMN. THIS MACRO WILL ALSO ALERT   11890042
.*                                 THE PROGRAMMER TO EXACTLY WHERE THE  11948042
.*                                 TABLE MUST BE BROKEN IF NECESSARY    12006042
.*                                 TO AVOID EXCEEDING THE MAXIMUM LIMIT 12064042
         GBLC &LABELS(2000)                                             12122042
         GBLC  &LBL(100)                                                12180042
         GBLA  &LBLCTR(100)                                             12238042
         GBLA  &LABELNR                                                 12296042
         GBLA  &NRENTS,&LPTR                                            12354042
         LCLC  &MARGIN,&TACK                                            12412042
         LCLC  &TEXT                                                    12470042
         LCLA  &OP,&K,&START,&NRCHAR,&REMAIN                            12528042
&MARGIN  SETC  '*'                                                      12586042
         AIF   ('&NAME' EQ '').LOOPOUT                                  12644042
&LPTR    SETA  &LPTR+1                                                  12702042
&LBL(&LPTR) SETC '&NAME'                                                12760042
&LBLCTR(&LPTR) SETA &LABELNR+1                                          12818042
.LOOPOUT ANOP                                                           12876042
&OP      SETA  &OP+1                                                    12934042
&K       SETA  K'&SYSLIST(&OP)                                          12992042
         AIF (&K GE 2).NORM                                             13050042
&K       SETA  2                                                        13108042
.NORM    ANOP                                                           13166042
&START   SETA  2                                                        13224042
         AIF (&OP LT N'&SYSLIST).NOTLAST                                13282042
&MARGIN  SETC  '$'                                                      13340042
.NOTLAST ANOP                                                           13398042
&NRCHAR  SETA  8                                                        13456042
&TACK    SETC  ''                                                       13514042
.LOOPIN  ANOP                                                           13572042
&REMAIN  SETA  &K-&START                                                13630042
         AIF (&REMAIN GE 8).MORE                                        13688042
&TACK    SETC  '&MARGIN'                                                13746042
&NRCHAR  SETA  &REMAIN                                                  13804042
.MORE    ANOP                                                           13862042
&TEXT    SETC  ''                                                       13920042
         AIF (&REMAIN EQ 0).ENDTEXT                                     13978042
&TEXT    SETC  '&SYSLIST(&OP)'(&START,&NRCHAR)                          14036042
.ENDTEXT ANOP                                                           14094042
&LABELNR SETA  &LABELNR+1                                               14152042
&LABELS(&LABELNR) SETC '&TEXT'.'&TACK'                                  14210042
&START   SETA  &START+8                                                 14268042
         AIF ('&TACK' EQ '').LOOPIN                                     14326042
         AIF ('&TACK' EQ '*').LOOPOUT                                   14384042
         MEND                                                           14442042
         SPACE 2                                                        14500042
         MACRO                                                          14558042
         LSTART                                                         14616042
.*                            THIS MACRO IS ISSUED WHEN THE LABEL AREA  14674042
.*                                 OF THE TABLE IS TO BEGIN.            14732042
         GBLC &LABELS(2000)                                             14790042
         GBLA  &LABELNR                                                 14848042
         GBLC  &LBL(100)                                                14906042
         GBLA  &LBLCTR(100)                                             14964042
         LCLA  &NDX,&CTR                                                15022042
         LINEND                                                         15080042
&CTR     SETA  1                                                        15138042
.LOOP    ANOP                                                           15196042
&NDX     SETA  &NDX+1                                                   15254042
         AIF   (&LBLCTR(&CTR) NE &NDX).NOLBL                            15312042
&LBL(&CTR) DC  C'&LABELS(&NDX)'                                         15370042
&CTR     SETA  &CTR+1                                                   15428042
         AGO   .LOOPCTL                                                 15486042
.NOLBL   ANOP                                                           15544042
         DC    C'&LABELS(&NDX)'                                         15602042
.LOOPCTL AIF   (&NDX LT &LABELNR).LOOP                                  15660042
         MEND                                                           15718042
         SPACE 2                                                        15776042
*  BIN MACRO     BIN MACRO     BIN MACRO     BIN MACRO     BIN MACRO  * 15834042
         SPACE 2                                                        15892042
         MACRO                                                          15950042
         BIN   &LOGITEM,&SKIP$OR                                        16008042
.*                                 &LOGITEM - NAME OF ITEM IN LOG       16066042
.*                                      RECORD DSECT                    16124042
.*                                 &SKIP$OR - NBR OF SPACES TO SKIP ON  16182042
.*                                 MULTIPLE PRINT OR NBR OF SPACES      16240042
.*                                      TO BACK UP FROM COLUMN FOR      16298042
.*                                      START OF PRINTING. THE LETTER   16356042
.*                                      B PRECEEDS THE NUMBER (B5) IF   16414042
.*                                      THE LATTER IS DESIRED. OMISSION 16472042
.*                                      OF THIS OPERAND FORCES OPTION 2 16530042
.*                                      WITH BACKUP SPACING EQUAL TO    16588042
.*                                 THE NUMBER OF BITS IN THE ITEM       16646042
.*                                 DEFINITION (VIA MACRO 'DSGEN').      16704042
.*                            A LIMIT OF 15 BITS IS IMPOSED FOR THE     16762042
.*                                 TOTAL NUMBER OF BITS TO PRINT.       16820042
         GBLC &ITEM(1000)                                               16878042
         GBLA &ITEMNBR,&BITS(1000),&SHIFT(1000),&NRENTS                 16936042
         GBLC  &DSECT                                                   16994042