         SPACE 2                                                        00060042
*  LINE MACRO     LINE MACRO     LINE MACRO     LINE MACRO            * 00120042
         MACRO                                                          00180042
&NAME    LINE  &DATA,&LABEL,&SKIP=                                      00240042
.*                            THIS MACRO ESTABLISHES THE MARGINS OR     00300042
.*                                 COLUMN SETTINGS FOR EACH LINE. IT    00360042
.*                                 GENERATES NECESSARY CARRIAGE CONTROL 00420042
.*                                 ENTRIES. LASTLY IT DETERMINES THE    00480042
.*                                 NUMBER OF ENTRIES ASSOCIATED WITH    00540042
.*                                 THE PREVIOUS LINE AND STORES THAT #  00600042
.*                                 INTO THE APPROPRIATE BYTE.           00660042
.*                            &DATA(1) - CHARACTER POSITION TO BEGIN    00720042
.*                                 DATA.                                00780042
.*                            &DATA(2) - # OF SPACES BETWEEN SUCCESSIVE 00840042
.*                                 DATA COLUMN STARTING CHARACTERS.     00900042
.*                            &LABEL(1) - CHAR. POS. TO BEGIN LABELS.   00960042
.*                            &LABEL(2) - # SPACES BETWEEN LINE'S LABEL 01020042
.*                                 STARTING CHARACTERS.                 01080042
.*                            &SKIP= - # OF LINES TO ADVANCE CARRIAGE   01140042
.*                                 TO BEGIN NEXT PRINTED LINE.          01200042
.*                            NEW ENTRIES ARE GENERATED ONLY WHEN       01260042
.*                                 NECESSARY. OMISSION OF ITEMS MEANS   01320042
.*                                 THEY HAVE NOT CHANGED SINCE PREVIOUS 01380042
.*                                 SETTINGS. A LINE MACRO IS REQUIRED   01440042
.*                                 FOR EACH PRINTED LINE. IF NO SETTING 01500042
.*                                 CHANGES ARE REQUIRED ALL OPERANDS    01560042
.*                                 ARE OMITTED IN WHICH CASE ONLY THE   01620042
.*                                 # OF ENTRIES FOR THE PREVIOUS LINE   01680042
.*                                 IS COMPUTED. THIS MACRO MUST BE THE  01740042
.*                                 FIRST MACRO INSTRUCTION ISSUED FOR   01800042
.*                                 THE SUBJECT LINE                     01860042
         GBLA  &DB,&DT,&LB,&LT,&NRENTS                                  01920042
         GBLA  &LASTCC,&INITIAL                                         01980042
         GBLC  &NRENTSX                                                 02040042
         GBLC  &CARRCON                                                 02100042
         GBLB  &TEST                                                    02160042
         LCLA  &S                                                       02220042
&NAME    DS    0C                                                       02280042
         AIF   (&INITIAL EQ 0).FIRSTLN                                  02340042
         LINEND                                                         02400042
         AGO   .NTFIRST                                                 02460042
.FIRSTLN ANOP                                                           02520042
&NRENTSX SETC  'N&SYSNDX'                                               02580042
&INITIAL SETA  1                                                        02640042
N&SYSNDX EQU   *                                                        02700042
.NTFIRST ANOP                                                           02760042
         DC    AL1(0)                                                   02820042
         AIF   ('&DATA(1)' EQ '').CKDTABS                               02880042
         AIF   (&DATA(1) EQ &DB).CKDTABS                                02940042
&DB      SETA  &DATA(1)                                                 03000042
         AGO   .AA                                                      03060042
.CKDTABS AIF   ('&DATA(2)' EQ '').NCDATA                                03120042
         AIF   (&DATA(2) EQ &DT).NCDATA                                 03180042
         AGO   .CC                                                      03240042
.AA      AIF   ('&DATA(2)' EQ '').BB                                    03300042
         AIF   (&DATA(2) EQ &DT).BB                                     03360042
.CC      ANOP                                                           03420042
&DT      SETA  &DATA(2)                                                 03480042
.BB      DC    XL2'FFFE'                                                03540042
         DC    FL1'&DB'                                                 03600042
         DC    FL1'&DT'                                                 03660042
&NRENTS  SETA  &NRENTS+1                                                03720042
.NCDATA  ANOP                                                           03780042
         AIF   ('&LABEL(1)' EQ '').CKLTABS                              03840042
         AIF   (&LABEL(1) EQ &LB).CKLTABS                               03900042
&LB      SETA  &LABEL(1)                                                03960042
         AGO   .AAA                                                     04020042
.CKLTABS AIF   ('&LABEL(2)' EQ '').NCLABEL                              04080042
         AIF   (&LABEL(2) EQ &LT).NCLABEL                               04140042
         AGO   .CCC                                                     04200042
.AAA     AIF   ('&LABEL(2)' EQ '').BBB                                  04260042
         AIF   (&LABEL(2) EQ &LT).BBB                                   04320042
.CCC     ANOP                                                           04380042
&LT      SETA  &LABEL(2)                                                04440042
.BBB     DC    XL2'FFFF'                                                04500042
         DC    FL1'&LB'                                                 04560042
         DC    FL1'&LT'                                                 04620042
&NRENTS  SETA  &NRENTS+1                                                04680042
.NCLABEL ANOP                                                           04740042
         AIF   ('&SKIP' NE '').CONT                                     04800042
         AIF   (&TEST EQ 0).NOCHANG                                     04860042
&S       SETA  &LASTCC                                                  04920042
         AGO   .DEFAULT                                                 04980042
.CONT    ANOP                                                           05040042
         AIF   (&TEST EQ 0).AB                                          05100042
&S       SETA  &SKIP                                                    05160042
.DEFAULT ANOP                                                           05220042
         ORG   &CARRCON+3                                               05280042
         DC    AL.3(0),AL.2(&S),AL.3(1)                                 05340042
         ORG                                                            05400042
&LASTCC  SETA  &S                                                       05460042
&TEST    SETB  0                                                        05520042
         AGO   .DD                                                      05580042
.AB      AIF   (&SKIP EQ &LASTCC).NOCHANG                               05640042
A&SYSNDX DC    XL2'FFFB'                                                05700042
         DC    AL.3(0),AL.2(&SKIP),AL.3(1)                              05760042
         DC    FL1'9'                                                   05820042
&LASTCC  SETA  &SKIP                                                    05880042
&TEST    SETB  1                                                        05940042
&CARRCON SETC  'A&SYSNDX'                                               06000042
&NRENTS  SETA  &NRENTS+1                                                06060042
.DD      ANOP                                                           06120042
.NOCHANG ANOP                                                           06180042
         MEND                                                           06240042
         EJECT                                                          06300042
         SPACE 2                                                        06360042
*  ROUTINE MACRO     ROUTINE MACRO     ROUTINE MACRO     ROUTINE MACRO* 06420042
         MACRO                                                          06480042
&NAME    ROUTINE &LOGITEM,&RNAME                                        06540042
         GBLC  &DSECT,&CSECT                                            06600042
         GBLC  &ITEM(1000)                                              06660042
         GBLA  &SHIFT(1000),&ITEMNBR                                    06720042
         GBLA  &NRENTS                                                  06780042
         LCLA  &ISHIFT,&NDX                                             06840042
.LOOP    ANOP                                                           06900042
&NDX     SETA  &NDX+1                                                   06960042
         AIF   ('&ITEM(&NDX)' EQ '&LOGITEM').FOUND                      07020042
         AIF   (&NDX LT &ITEMNBR).LOOP                                  07080042
         MNOTE *,'LOG ITEM NOT DEFINED'                                 07140042
         MEXIT                                                          07200042
.FOUND   ANOP                                                           07260042
&ISHIFT  SETA  &SHIFT(&NDX)                                             07320042
&NAME    DC    AL.12(&LOGITEM-&DSECT),XL.4'D'                           07380042
         DC    AL.4(&ISHIFT),AL.12(&RNAME-&CSECT)                       07440042
&NRENTS  SETA  &NRENTS+1                                                07500042
         MEND                                                           07560042
*  DSGEN MACRO     DSGEN MACRO     DSGEN MACRO     DSGEN MACRO        * 07620042
         SPACE 2                                                        07680042
         MACRO                                                          07740042
&NAME    DSGEN &X1,&X2,&X3,&X4,&X5,&X6,&X7,&X8,&X9,&X10,&X11,&X12,&X13,X07800042
               &X14,&X15,&X16,&X17,&X18,&X19,&X20,&X21,&X22,&X23,&X24, X07860042
               &X25,&X26,&X27,&X28,&X29,&X30,&X31,&X32                  07920042
.*                            THIS MACRO GENERATES ONE DSECT WORD       07980042
.*                                 FORMATTED FOR THE SUBJECT LOG RECORD 08040042
.*                                 EACH OPERAND HAS TWO SUB LISTS. THE  08100042
.*                                 FIRST IS THE NAME OF THE LOG ITEM    08160042
.*                                 WHILE THE SECOND IS THE # OF BITS TO 08220042
.*                                 ALLOCATE FOR THIS ITEM. ITEMS MUST   08280042
.*                                 BE DEFINED CONTIGUOUSLY WITHOUT GAPS 08340042
.*                                 UNUSED BIT GROUPS MUST BE GIVEN      08400042
.*                                 DUMMY NAMES. THE NAMES PROVIDED FOR  08460042
.*                                 THE LOG ITEMS MAY THEN BE USED IN    08520042
.*                                 THE CONVERSION MACRO INSTRUCTIONS.   08580042
         GBLC &ITEM(1000)                                               08640042
         GBLA &ITEMNBR,&BITS(1000),&SHIFT(1000)                         08700042
         LCLC  &SYMBOL                                                  08760042
         LCLA  &OP,&COUNT,&BYTE                                         08820042
.LOOP    ANOP                                                           08880042
&OP      SETA  &OP+1                                                    08940042
&ITEMNBR SETA  &ITEMNBR+1                                               09000042
&SYMBOL  SETC  '&SYSLIST(&OP,1)'                                        09060042
         AIF   ('&SYSLIST(&OP,2)' NE '').OK1                            09120042
         MNOTE *,'NULL BIT COUNT FIELD'                                 09180042
         MEXIT                                                          09240042
.OK1     ANOP                                                           09300042
         AIF   ('&SYMBOL' NE '').OK                                     09360042
         MNOTE 'LOG ITEM SYMBOL NOT PROVIDED'                           09420042
         AGO   .CNT                                                     09480042
.OK      ANOP                                                           09540042
         AIF   ('&SYMBOL'(1,1) EQ '''').CNT                *TEMP*       09600042
&SYMBOL  EQU   *+&BYTE                                                  09660042
&ITEM(&ITEMNBR)  SETC '&SYSLIST(&OP,1)'                                 09720042
&BITS(&ITEMNBR) SETA &SYSLIST(&OP,2)                                    09780042
&SHIFT(&ITEMNBR) SETA &COUNT-&BYTE*8                                    09840042
.CNT     ANOP                                                           09900042
&COUNT   SETA  &COUNT+&SYSLIST(&OP,2)                                   09960042
&BYTE    SETA  &COUNT/8                                                 10020042
         AIF (&OP LT N'&SYSLIST).LOOP                                   10080042
         AIF   (&COUNT NE 32).NOT32                                     10140042
&NAME    DS    4C                                                       10200042
         MEXIT                                                          10260042
.NOT32   AIF   (&COUNT NE 64).ERR                                       10320042
&NAME    DS    8C                                                       10380042
         MEXIT                                                          10440042
.ERR     MNOTE '**BIT COUNT FIELDS DO NOT TOTAL 32 OR 64**'             10500042
         MEND                                                           10560042
         MACRO                                                          10620042
         LINEND                                                         10680042
.*                            THIS MACRO IS USED ONLY BY THE LINE       10740042
.*                                 MACRO TO SET THE NUMBER OF ENTRIES   10800042
.*                                 ASSOCIATED WITH EACH LINE.           10860042
         GBLA  &NRENTS                                                  10920042
         GBLC &NRENTSX                                                  10980042
         ORG   &NRENTSX                                                 11040042
         DC    FL1'&NRENTS'                                             11100042
         ORG                                                            11160042
&NRENTS  SETA  0                                                        11220042
B&SYSNDX EQU   *                                                        11280042
&NRENTSX SETC  'B&SYSNDX'                                               11340042
         MEND                                                           11400042
         SPACE 2                                                        11460042
         EJECT                                                          11520042
*  LABEL MACRO     LABEL MACRO     LABEL MACRO     LABEL MACRO        * 11580042
         SPACE 2                                                        11640042
         MACRO                                                          11700042
&NAME    LABEL &LABEL1,&LABEL2,&LABEL3,&LABEL4,&LABEL5,&LABEL6,        C11760042
               &LABEL7,&LABEL8                                          11820042
.*                            THIS MACRO ALLOWS UP TO ACHT LABELS TO    11880042
.*                                 BE SPECIFIED FOR A GIVEN LINE. THE   11940042
.*                                 LABELS SHOULD BE ENCLOSED IN QUOTA-  12000042
.*                                 TION MARKS. THE COLUMN AND LINE END  12060042
.*                                 CONTROLS WILL BE INSERTED BY THE     12120042
.*                                 MACRO. OMITTED OPERANDS MEAN NO      12180042
.*                                 LABEL REQUIRED FOR RESPECTIVE        12240042
.*                                 COLUMN. THIS MACRO WILL ALSO ALERT   12300042
.*                                 THE PROGRAMMER TO EXACTLY WHERE THE  12360042
.*                                 TABLE MUST BE BROKEN IF NECESSARY    12420042
.*                                 TO AVOID EXCEEDING THE MAXIMUM LIMIT 12480042
         GBLC &LABELS(2000)                                             12540042
         GBLC  &LBL(100)                                                12600042
         GBLA  &LBLCTR(100)                                             12660042
         GBLA  &LABELNR                                                 12720042
         GBLA  &NRENTS,&LPTR                                            12780042
         LCLC  &MARGIN,&TACK                                            12840042
         LCLC  &TEXT                                                    12900042
         LCLA  &OP,&K,&START,&NRCHAR,&REMAIN                            12960042
&MARGIN  SETC  '*'                                                      13020042
         AIF   ('&NAME' EQ '').LOOPOUT                                  13080042
&LPTR    SETA  &LPTR+1                                                  13140042
&LBL(&LPTR) SETC '&NAME'                                                13200042
&LBLCTR(&LPTR) SETA &LABELNR+1                                          13260042
.LOOPOUT ANOP                                                           13320042
&OP      SETA  &OP+1                                                    13380042
&K       SETA  K'&SYSLIST(&OP)                                          13440042
         AIF (&K GE 2).NORM                                             13500042
&K       SETA  2                                                        13560042
.NORM    ANOP                                                           13620042
&START   SETA  2                                                        13680042
         AIF (&OP LT N'&SYSLIST).NOTLAST                                13740042
&MARGIN  SETC  '$'                                                      13800042
.NOTLAST ANOP                                                           13860042
&NRCHAR  SETA  8                                                        13920042
&TACK    SETC  ''                                                       13980042
.LOOPIN  ANOP                                                           14040042
&REMAIN  SETA  &K-&START                                                14100042
         AIF (&REMAIN GE 8).MORE                                        14160042
&TACK    SETC  '&MARGIN'                                                14220042
&NRCHAR  SETA  &REMAIN                                                  14280042
.MORE    ANOP                                                           14340042
&TEXT    SETC  ''                                                       14400042
         AIF (&REMAIN EQ 0).ENDTEXT                                     14460042
&TEXT    SETC  '&SYSLIST(&OP)'(&START,&NRCHAR)                          14520042
.ENDTEXT ANOP                                                           14580042
&LABELNR SETA  &LABELNR+1                                               14640042
&LABELS(&LABELNR) SETC '&TEXT'.'&TACK'                                  14700042
&START   SETA  &START+8                                                 14760042
         AIF ('&TACK' EQ '').LOOPIN                                     14820042
         AIF ('&TACK' EQ '*').LOOPOUT                                   14880042
         MEND                                                           14940042
         SPACE 2                                                        15000042
         MACRO                                                          15060042
         LSTART                                                         15120042
.*                            THIS MACRO IS ISSUED WHEN THE LABEL AREA  15180042
.*                                 OF THE TABLE IS TO BEGIN.            15240042
         GBLC &LABELS(2000)                                             15300042
         GBLA  &LABELNR                                                 15360042
         GBLC  &LBL(100)                                                15420042
         GBLA  &LBLCTR(100)                                             15480042
         LCLA  &NDX,&CTR                                                15540042
         LINEND                                                         15600042
&CTR     SETA  1                                                        15660042
.LOOP    ANOP                                                           15720042
&NDX     SETA  &NDX+1                                                   15780042
         AIF   (&LBLCTR(&CTR) NE &NDX).NOLBL                            15840042
&LBL(&CTR) DC  C'&LABELS(&NDX)'                                         15900042
&CTR     SETA  &CTR+1                                                   15960042
         AGO   .LOOPCTL                                                 16020042
.NOLBL   ANOP                                                           16080042
         DC    C'&LABELS(&NDX)'                                         16140042
.LOOPCTL AIF   (&NDX LT &LABELNR).LOOP                                  16200042
         MEND                                                           16260042
         SPACE 2                                                        16320042
*  BIN MACRO     BIN MACRO     BIN MACRO     BIN MACRO     BIN MACRO  * 16380042
         SPACE 2                                                        16440042
         MACRO                                                          16500042
         BIN   &LOGITEM,&SKIP$OR                                        16560042
.*                                 &LOGITEM - NAME OF ITEM IN LOG       16620042
.*                                      RECORD DSECT                    16680042
.*                                 &SKIP$OR - NBR OF SPACES TO SKIP ON  16740042
.*                                 MULTIPLE PRINT OR NBR OF SPACES      16800042
.*                                      TO BACK UP FROM COLUMN FOR      16860042
.*                                      START OF PRINTING. THE LETTER   16920042
.*                                      B PRECEEDS THE NUMBER (B5) IF   16980042
.*                                      THE LATTER IS DESIRED. OMISSION 17040042
.*                                      OF THIS OPERAND FORCES OPTION 2 17100042
.*                                      WITH BACKUP SPACING EQUAL TO    17160042
.*                                 THE NUMBER OF BITS IN THE ITEM       17220042
.*                                 DEFINITION (VIA MACRO 'DSGEN').      17280042
.*                            A LIMIT OF 15 BITS IS IMPOSED FOR THE     17340042
.*                                 TOTAL NUMBER OF BITS TO PRINT.       17400042
         GBLC &ITEM(1000)                                               17460042
         GBLA &ITEMNBR,&BITS(1000),&SHIFT(1000),&NRENTS                 17520042
         GBLC  &DSECT                                                   17580042
         LCLB  &B                                                       17640042
         LCLA  &IBITS,&NDX,&ISHIFT,&K                                   17700042
         LCLA  &TEMP,&T                                                 17760042
         LCLC  &S                                                       17820042
.LOOP    ANOP                                                           17880042
&NDX     SETA  &NDX+1                                                   17940042
         AIF   ('&ITEM(&NDX)' EQ '&LOGITEM').FOUND                      18000042
         AIF   (&NDX LT &ITEMNBR).LOOP                                  18060042
         MNOTE *,'YOU BLEW IT'                                          18120042
         ROUTINE DUM,SKIPPER                                            18180042
         MEXIT                                                          18240042
.FOUND   ANOP                                                           18300042
&ISHIFT  SETA  &SHIFT(&NDX)                                             18360042
&IBITS   SETA  &BITS(&NDX)                                              18420042
&T       SETA  &IBITS-1                                                 18480042
&B       SETB  0                                                        18540042
         AIF   ('&SKIP$OR' EQ '').BACKUP                                18600042
&K       SETA  K'&SKIP$OR                                               18660042
&B       SETB  ('&SKIP$OR'(1,1) EQ 'B')                                 18720042
&S       SETC  '&SKIP$OR'(&B+1,&K-&B)                                   18780042
&T       SETA  &S                                                       18840042
.BACKUP  ANOP                                                           18900042
&NRENTS  SETA  &NRENTS+1                                                18960042
&TEMP    SETA  &ISHIFT                                                  19020042
A&SYSNDX DC    AL.12(&LOGITEM-&DSECT),XL.4'&TEMP'                       19080042
         AIF (&IBITS EQ 1 AND &B EQ 0).OUT                              19140042
         ORG   A&SYSNDX                                                 19200042
&B       SETB  1                                                        19260042
         DC    AL.12(&LOGITEM-&DSECT),XL.4'C'                           19320042
         DC    BL.1'&B',AL.7(&T),AL.4(&IBITS),FL.4'&ISHIFT'             19380042
.OUT     ANOP                                                           19440042
         MEND                                                           19500042
         EJECT                                                          19560042
*  HEX MACRO     HEX MACRO     HEX MACRO    HEXN MACRO     HEX MACRO  * 19620042
         SPACE 2                                                        19680042
         MACRO                                                          19740042
         HEX   &LOGITEM,&SKIP$OR,&BYTES                                 19800042
.*                            THIS MACRO FACILITATES GENERATION OF THE  19860042
.*                                 TABLE ENTRIES SPECIFYING HEX TYPE    19920042
.*                                 CONVERSIONS.                         19980042
.*                            &LOGITEM - NAME OF DATA ITEM TO BE        20040042
.*                                 CONVERTED                            20100042
.*                            &SKIP$OR - NUMBER OF SPACES TO SKIP ON    20160042
.*                                 MULTIPLE PRINT OR NBR OF SPACES TO   20220042
.*                                 BACK UP FROM COLUMN FOR START OF     20280042
.*                                 PRINTING. THE LETTER B PRECEEDS THE  20340042
.*                                 NUMBER (B8) IF THE LATTER OPTION IS  20400042
.*                                 DESIRED. OMISSION OF THIS OPERAND    20460042
.*                                 FORCES OPTION 2 WITH BACKUP SPACING  20520042
.*                                 EQUAL TO THE NUMBER OF BYTES SPECI-  20580042
.*                                 FIED BY THE NEXT OPERAND (TWICE THIS 20640042
.*                                 NUMBER IF SUFFIX IS EXPLICITLY OR    20700042
.*                                 IMPLICITLY B).                       20760042
.*                            &BYTES - NUMBER OF TOTAL INPUT BYTES TO   20820042
.*                                 PROCESS. THIS NUMBER IS SUFFIXED     20880042
.*                                 WITH AN L,R, OR B TO STIPULATE       20940042
.*                                 PRINTING OF THE LEFT HALF, RIGHT     21000042
.*                                 HALF, OR BOTH HALVES OF THE BYTE     21060042
.*                                 RESPECTIVELY. OMISSION OF THIS       21120042
.*                                 OPERAND DEFAULTS TO B WITH THE NUM-  21180042
.*                                 BER OF BYTES EQUAL TO THE ITEM LNGTH 21240042
.*                            A NEW ENTRY IS GENERATED ONLY WHEN NECES- 21300042
.*                                 SARY. THIS MACRO MUST BE THE FIRST   21360042
.*                                 MACRO INSTRUCTION ISSUED FOR THE     21420042
.*                                 SUBJECT LINE(S).                     21480042
         GBLC &ITEM(1000),&DSECT                                        21540042
         GBLA &ITEMNBR,&BITS(1000),&SHIFT(1000),&NRENTS                 21600042
         LCLB  &B                                                       21660042
         LCLA  &IBITS,&NDX,&ISHIFT,&K,&T,&CODE,&BYTESP                  21720042
         LCLC  &S,&LETTER                                               21780042
.LOOP    ANOP                                                           21840042
&NDX     SETA  &NDX+1                                                   21900042