         TITLE 'IFCSI155 MODEL 155 CHANNEL SUMMARY TABLE'               00100020
         MACRO                                                          00200020
&NAME    DSGEN &X1,&X2,&X3,&X4,&X5,&X6,&X7,&X8,&X9,&X10,&X11,&X12,&X13,X00300020
               &X14,&X15,&X16,&X17,&X18,&X19,&X20,&X21,&X22,&X23,&X24, X00400020
               &X25,&X26,&X27,&X28,&X29,&X30,&X31,&X32                  00500020
.*                            THIS MACRO GENERATES ONE DSECT WORD       00600020
.*                                 FORMATTED FOR THE SUBJECT LOG RECORD 00700020
.*                                 EACH OPERAND HAS TWO SUB LISTS. THE  00800020
.*                                 FIRST IS THE NAME OF THE LOG ITEM    00900020
.*                                 WHILE THE SECOND IS THE # OF BITS TO 01000020
.*                                 ALLOCATE FOR THIS ITEM. ITEMS MUST   01100020
.*                                 BE DEFINED CONTIGUOUSLY WITHOUT GAPS 01200020
.*                                 UNUSED BIT GROUPS MUST BE GIVEN      01300020
.*                                 DUMMY NAMES. THE NAMES PROVIDED FOR  01400020
.*                                 THE LOG ITEMS MAY THEN BE USED IN    01500020
.*                                 THE CONVERSION MACRO INSTRUCTIONS.   01600020
         GBLC &ITEM(1000)                                               01700020
         GBLA &ITEMNBR,&BITS(1000),&SHIFT(1000)                         01800020
         LCLC  &SYMBOL                                                  01900020
         LCLA  &OP,&COUNT,&BYTE                                         02000020
.LOOP    ANOP                                                           02100020
&OP      SETA  &OP+1                                                    02200020
&ITEMNBR SETA  &ITEMNBR+1                                               02300020
&SYMBOL  SETC  '&SYSLIST(&OP,1)'                                        02400020
         AIF   ('&SYSLIST(&OP,2)' NE '').OK1                            02500020
         MNOTE *,'NULL BIT COUNT FIELD'                                 02600020
         MEXIT                                                          02700020
.OK1     ANOP                                                           02800020
         AIF   ('&SYMBOL' NE '').OK                                     02900020
         MNOTE 'LOG ITEM SYMBOL NOT PROVIDED'                           03000020
         AGO   .CNT                                                     03100020
.OK      ANOP                                                           03200020
         AIF   ('&SYMBOL'(1,1) EQ '''').CNT                *TEMP*       03300020
&SYMBOL  EQU   *+&BYTE                                                  03400020
&ITEM(&ITEMNBR)  SETC '&SYSLIST(&OP,1)'                                 03500020
&BITS(&ITEMNBR) SETA &SYSLIST(&OP,2)                                    03600020
&SHIFT(&ITEMNBR) SETA &COUNT-&BYTE*8                                    03700020
.CNT     ANOP                                                           03800020
&COUNT   SETA  &COUNT+&SYSLIST(&OP,2)                                   03900020
&BYTE    SETA  &COUNT/8                                                 04000020
         AIF (&OP LT N'&SYSLIST).LOOP                                   04100020
         AIF   (&COUNT NE 32).NOT32                                     04200020
&NAME    DS    4C                                                       04300020
         MEXIT                                                          04400020
.NOT32   AIF   (&COUNT NE 64).ERR                                       04500020
&NAME    DS    8C                                                       04600020
         MEXIT                                                          04700020
.ERR     MNOTE '**BIT COUNT FIELDS DO NOT TOTAL 32 OR 64**'             04800020
         MEND                                                           04900020
         MACRO                                                          05000020
&NAME    LINE  &DATA,&LABEL,&SKIP=                                      05100020
.*                            THIS MACRO ESTABLISHES THE MARGINS OR     05200020
.*                                 COLUMN SETTINGS FOR EACH LINE. IT    05300020
.*                                 GENERATES NECESSARY CARRIAGE CONTROL 05400020
.*                                 ENTRIES. LASTLY IT DETERMINES THE    05500020
.*                                 NUMBER OF ENTRIES ASSOCIATED WITH    05600020
.*                                 THE PREVIOUS LINE AND STORES THAT #  05700020
.*                                 INTO THE APPROPRIATE BYTE.           05800020
.*                            &DATA(1) - CHARACTER POSITION TO BEGIN    05900020
.*                                 DATA.                                06000020
.*                            &DATA(2) - # OF SPACES BETWEEN SUCCESSIVE 06100020
.*                                 DATA COLUMN STARTING CHARACTERS.     06200020
.*                            &LABEL(1) - CHAR. POS. TO BEGIN LABELS.   06300020
.*                            &LABEL(2) - # SPACES BETWEEN LINE'S LABEL 06400020
.*                                 STARTING CHARACTERS.                 06500020
.*                            &SKIP= - # OF LINES TO ADVANCE CARRIAGE   06600020
.*                                 TO BEGIN NEXT PRINTED LINE.          06700020
.*                            NEW ENTRIES ARE GENERATED ONLY WHEN       06800020
.*                                 NECESSARY. OMISSION OF ITEMS MEANS   06900020
.*                                 THEY HAVE NOT CHANGED SINCE PREVIOUS 07000020
.*                                 SETTINGS. A LINE MACRO IS REQUIRED   07100020
.*                                 FOR EACH PRINTED LINE. IF NO SETTING 07200020
.*                                 CHANGES ARE REQUIRED ALL OPERANDS    07300020
.*                                 ARE OMITTED IN WHICH CASE ONLY THE   07400020
.*                                 # OF ENTRIES FOR THE PREVIOUS LINE   07500020
.*                                 IS COMPUTED. THIS MACRO MUST BE THE  07600020
.*                                 FIRST MACRO INSTRUCTION ISSUED FOR   07700020
.*                                 THE SUBJECT LINE                     07800020
         GBLA  &DB,&DT,&LB,&LT,&NRENTS                                  07900020
         GBLA  &LASTCC,&INITIAL                                         08000020
         GBLC  &NRENTSX                                                 08100020
         GBLC  &CARRCON                                                 08200020
         GBLB  &TEST                                                    08300020
         LCLA  &S                                                       08400020
&NAME    DS    0C                                                       08500020
         AIF   (&INITIAL EQ 0).FIRSTLN                                  08600020
         LINEND                                                         08700020
         AGO   .NTFIRST                                                 08800020
.FIRSTLN ANOP                                                           08900020
&NRENTSX SETC  'N&SYSNDX'                                               09000020
&INITIAL SETA  1                                                        09100020
N&SYSNDX EQU   *                                                        09200020
.NTFIRST ANOP                                                           09300020
         DC    AL1(0)                                                   09400020
         AIF   ('&DATA(1)' EQ '').CKDTABS                               09500020
         AIF   (&DATA(1) EQ &DB).CKDTABS                                09600020
&DB      SETA  &DATA(1)                                                 09700020
         AGO   .AA                                                      09800020
.CKDTABS AIF   ('&DATA(2)' EQ '').NCDATA                                09900020
         AIF   (&DATA(2) EQ &DT).NCDATA                                 10000020
         AGO   .CC                                                      10100020
.AA      AIF   ('&DATA(2)' EQ '').BB                                    10200020
         AIF   (&DATA(2) EQ &DT).BB                                     10300020
.CC      ANOP                                                           10400020
&DT      SETA  &DATA(2)                                                 10500020
.BB      DC    XL2'FFFE'                                                10600020
         DC    FL1'&DB'                                                 10700020
         DC    FL1'&DT'                                                 10800020
&NRENTS  SETA  &NRENTS+1                                                10900020
.NCDATA  ANOP                                                           11000020
         AIF   ('&LABEL(1)' EQ '').CKLTABS                              11100020
         AIF   (&LABEL(1) EQ &LB).CKLTABS                               11200020
&LB      SETA  &LABEL(1)                                                11300020
         AGO   .AAA                                                     11400020
.CKLTABS AIF   ('&LABEL(2)' EQ '').NCLABEL                              11500020
         AIF   (&LABEL(2) EQ &LT).NCLABEL                               11600020
         AGO   .CCC                                                     11700020
.AAA     AIF   ('&LABEL(2)' EQ '').BBB                                  11800020
         AIF   (&LABEL(2) EQ &LT).BBB                                   11900020
.CCC     ANOP                                                           12000020
&LT      SETA  &LABEL(2)                                                12100020
.BBB     DC    XL2'FFFF'                                                12200020
         DC    FL1'&LB'                                                 12300020
         DC    FL1'&LT'                                                 12400020
&NRENTS  SETA  &NRENTS+1                                                12500020
.NCLABEL ANOP                                                           12600020
         AIF   ('&SKIP' NE '').CONT                                     12700020
         AIF   (&TEST EQ 0).NOCHANG                                     12800020
&S       SETA  &LASTCC                                                  12900020
         AGO   .DEFAULT                                                 13000020
.CONT    ANOP                                                           13100020
         AIF   (&TEST EQ 0).AB                                          13200020
&S       SETA  &SKIP                                                    13300020
.DEFAULT ANOP                                                           13400020
         ORG   &CARRCON+3                                               13500020
         DC    AL.3(0),AL.2(&S),AL.3(1)                                 13600020
         ORG                                                            13700020
&LASTCC  SETA  &S                                                       13800020
&TEST    SETB  0                                                        13900020
         AGO   .DD                                                      14000020
.AB      AIF   (&SKIP EQ &LASTCC).NOCHANG                               14100020
A&SYSNDX DC    XL2'FFFB'                                                14200020
         DC    AL.3(0),AL.2(&SKIP),AL.3(1)                              14300020
         DC    FL1'9'                                                   14400020
&LASTCC  SETA  &SKIP                                                    14500020
&TEST    SETB  1                                                        14600020
&CARRCON SETC  'A&SYSNDX'                                               14700020
&NRENTS  SETA  &NRENTS+1                                                14800020
.DD      ANOP                                                           14900020
.NOCHANG ANOP                                                           15000020
         MEND                                                           15100020
         MACRO                                                          15200020
         BIN   &LOGITEM,&SKIP$OR                                        15300020
.*                                 &LOGITEM - NAME OF ITEM IN LOG       15400020
.*                                      RECORD DSECT                    15500020
.*                                 &SKIP$OR - NBR OF SPACES TO SKIP ON  15600020
.*                                 MULTIPLE PRINT OR NBR OF SPACES      15700020
.*                                      TO BACK UP FROM COLUMN FOR      15800020
.*                                      START OF PRINTING. THE LETTER   15900020
.*                                      B PRECEEDS THE NUMBER (B5) IF   16000020
.*                                      THE LATTER IS DESIRED. OMISSION 16100020
.*                                      OF THIS OPERAND FORCES OPTION 2 16200020
.*                                      WITH BACKUP SPACING EQUAL TO    16300020
.*                                 THE NUMBER OF BITS IN THE ITEM       16400020
.*                                 DEFINITION (VIA MACRO 'DSGEN').      16500020
.*                            A LIMIT OF 15 BITS IS IMPOSED FOR THE     16600020
.*                                 TOTAL NUMBER OF BITS TO PRINT.       16700020
         GBLC &ITEM(1000)                                               16800020
         GBLA &ITEMNBR,&BITS(1000),&SHIFT(1000),&NRENTS                 16900020
         GBLC  &DSECT                                                   17000020
         LCLB  &B                                                       17100020
         LCLA  &IBITS,&NDX,&ISHIFT,&K                                   17200020
         LCLA  &TEMP                                                    17300020
         LCLC  &S                                                       17400020
.LOOP    ANOP                                                           17500020
&NDX     SETA  &NDX+1                                                   17600020
         AIF   ('&ITEM(&NDX)' EQ '&LOGITEM').FOUND                      17700020
         AIF   (&NDX LT &ITEMNBR).LOOP                                  17800020
         MNOTE *,'YOU BLEW IT'                                          17900020
         ROUTINE DUM,SKIPPER                                            18000020
         MEXIT                                                          18100020
.FOUND   ANOP                                                           18200020
&ISHIFT  SETA  &SHIFT(&NDX)                                             18300020
&IBITS   SETA  &BITS(&NDX)                                              18400020
&S       SETC  '&IBITS'                                                 18500020
&B       SETB  1                                                        18600020
         AIF   ('&SKIP$OR' EQ '').BACKUP                                18700020
&K       SETA  K'&SKIP$OR                                               18800020
&B       SETB  ('&SKIP$OR'(1,1) EQ 'B')                                 18900020
&S       SETC  '&SKIP$OR'(&B+1,&K-&B)                                   19000020
.BACKUP  ANOP                                                           19100020
&NRENTS  SETA  &NRENTS+1                                                19200020
&TEMP    SETA  &ISHIFT+1                                                19300020
A&SYSNDX DC    AL.12(&LOGITEM-&DSECT),XL.4'&TEMP'                       19400020
         AIF (&IBITS EQ 1 AND &B EQ 0).OUT                              19500020
         ORG   A&SYSNDX                                                 19600020
         DC    AL.12(&LOGITEM-&DSECT),XL.4'C'                           19700020
         DC    BL.1'&B',AL.7(&S),AL.4(&IBITS),FL.4'&ISHIFT'             19800020
.OUT     ANOP                                                           19900020
         MEND                                                           20000020
         MACRO                                                          20100020
         HEX   &LOGITEM,&SKIP$OR,&BYTES                                 20200020
.*                            THIS MACRO FACILITATES GENERATION OF THE  20300020
.*                                 TABLE ENTRIES SPECIFYING HEX TYPE    20400020
.*                                 CONVERSIONS.                         20500020
.*                            &LOGITEM - NAME OF DATA ITEM TO BE        20600020
.*                                 CONVERTED                            20700020
.*                            &SKIP$OR - NUMBER OF SPACES TO SKIP ON    20800020
.*                                 MULTIPLE PRINT OR NBR OF SPACES TO   20900020
.*                                 BACK UP FROM COLUMN FOR START OF     21000020
.*                                 PRINTING. THE LETTER B PRECEEDS THE  21100020
.*                                 NUMBER (B8) IF THE LATTER OPTION IS  21200020
.*                                 DESIRED. OMISSION OF THIS OPERAND    21300020
.*                                 FORCES OPTION 2 WITH BACKUP SPACING  21400020
.*                                 EQUAL TO THE NUMBER OF BYTES SPECI-  21500020
.*                                 FIED BY THE NEXT OPERAND (TWICE THIS 21600020
.*                                 NUMBER IF SUFFIX IS EXPLICITLY OR    21700020
.*                                 IMPLICITLY B).                       21800020
.*                            &BYTES - NUMBER OF TOTAL INPUT BYTES TO   21900020
.*                                 PROCESS. THIS NUMBER IS SUFFIXED     22000020
.*                                 WITH AN L,R, OR B TO STIPULATE       22100020
.*                                 PRINTING OF THE LEFT HALF, RIGHT     22200020
.*                                 HALF, OR BOTH HALVES OF THE BYTE     22300020
.*                                 RESPECTIVELY. OMISSION OF THIS       22400020
.*                                 OPERAND DEFAULTS TO B WITH THE NUM-  22500020
.*                                 BER OF BYTES EQUAL TO THE ITEM LNGTH 22600020
.*                            A NEW ENTRY IS GENERATED ONLY WHEN NECES- 22700020
.*                                 SARY. THIS MACRO MUST BE THE FIRST   22800020
.*                                 MACRO INSTRUCTION ISSUED FOR THE     22900020
.*                                 SUBJECT LINE(S).                     23000020
         GBLC &ITEM(1000),&DSECT                                        23100020
         GBLA &ITEMNBR,&BITS(1000),&SHIFT(1000),&NRENTS                 23200020
         LCLB  &B                                                       23300020
         LCLA  &IBITS,&NDX,&ISHIFT,&K,&T,&CODE,&BYTESP                  23400020
         LCLC  &S,&LETTER                                               23500020
.LOOP    ANOP                                                           23600020
&NDX     SETA  &NDX+1                                                   23700020
         AIF   ('&ITEM(&NDX)' EQ '&LOGITEM').FOUND                      23800020
         AIF   (&NDX LT &ITEMNBR).LOOP                                  23900020
         MNOTE *,'LOG ITEM NOT DEFINED'                                 24000020
         MEXIT                                                          24100020
.FOUND   ANOP                                                           24200020
&ISHIFT  SETA  &SHIFT(&NDX)                                             24300020
&IBITS   SETA  &BITS(&NDX)                                              24400020
&CODE    SETA  1                                                        24500020
&K       SETA  K'&BYTES                                                 24600020
         AIF   (&IBITS-(&IBITS/4)*4 EQ 0).OK                            24700020
         MNOTE *,'BIT LENGTH SPECIFICATION INCONSISTENT WITH CONTROL'   24800020
         MEXIT                                                          24900020
.OK      AIF   ('&BYTES' EQ '').USEDEFN                                 25000020
&LETTER  SETC  '&BYTES'(&K,1)                                           25100020
&S       SETC  '&BYTES'(1,&K-1)                                         25200020
&BYTESP  SETA  &S                                                       25300020
         AIF   ('&LETTER' EQ 'B').BOTH                                  25400020
         AIF   (&ISHIFT EQ 0 OR &ISHIFT EQ 4).OK2                       25500020
.ERR     MNOTE *,'DATA NOT ALLIGNED ON HEX OR BYTE BOUNDARY'            25600020
         MEXIT                                                          25700020
.USEDEFN ANOP                                                           25800020
&BYTESP  SETA  &IBITS/8                                                 25900020
.BOTH    AIF   (&ISHIFT NE 0).ERR                                       26000020
&CODE    SETA  3                                                        26100020
&T       SETA  &BYTESP*2                                                26200020
&S       SETC  '&T'                                                     26300020
.OK2     AIF   (&ISHIFT EQ 0).L                                         26400020
&CODE    SETA  2                                                        26500020
.L       ANOP                                                           26600020
&B       SETB  1                                                        26700020
         AIF   ('&SKIP$OR' EQ '').BACKUP                                26800020
&K       SETA  K'&SKIP$OR                                               26900020
&B       SETB  ('&SKIP$OR'(1,1) EQ 'B')                                 27000020
&S       SETC  '&SKIP$OR'(&B+1,&K-&B)                                   27100020
.BACKUP  ANOP                                                           27200020
&NRENTS  SETA  &NRENTS+1                                                27300020
         DC    AL.12(&LOGITEM-&DSECT),XL.4'A'                           27400020
         DC    BL.1'&B',FL.7'&S',FL.4'&BYTESP',FL.4'&CODE'              27500020
.OUT     ANOP                                                           27600020
         MEND                                                           27700020
         MACRO                                                          27800020
&NAME    ROUTINE &LOGITEM,&RNAME                                        27900020
         GBLA  &NRENTS                                                  28000020
         GBLC  &DSECT,&CSECT                                            28100020
&NAME    DC    AL.12(&LOGITEM-&DSECT),XL.4'D'                           28200020
         DC    AL2(&RNAME-&CSECT)                                       28300020
&NRENTS  SETA  &NRENTS+1                                                28400020
         MEND                                                           28500020
         MACRO                                                          28600020
         LABEL &LABEL1,&LABEL2,&LABEL3,&LABEL4                          28700020
.*                            THIS MACRO ALLOWS UP TO FOUR LABELS TO    28800020
.*                                 BE SPECIFIED FOR A GIVEN LINE. THE   28900020
.*                                 LABELS SHOULD BE ENCLOSED IN QUOTA-  29000020
.*                                 TION MARKS. THE COLUMN AND LINE END  29100020
.*                                 CONTROLS WILL BE INSERTED BY THE     29200020
.*                                 MACRO. OMITTED OPERANDS MEAN NO      29300020
.*                                 LABEL REQUIRED FOR RESPECTIVE        29400020
.*                                 COLUMN. THIS MACRO WILL ALSO ALERT   29500020
.*                                 THE PROGRAMMER TO EXACTLY WHERE THE  29600020
.*                                 TABLE MUST BE BROKEN IF NECESSARY    29700020
.*                                 TO AVOID EXCEEDING THE MAXIMUM LIMIT 29800020
         GBLC &LABELS(1000)                                             29900020
         GBLA  &LABELNR                                                 30000020
         GBLA  &NRENTS                                                  30100020
         LCLC  &MARGIN,&TACK                                            30200020
         LCLC  &TEXT                                                    30300020
         LCLA  &OP,&K,&START,&NRCHAR,&REMAIN                            30400020
&MARGIN  SETC  '*'                                                      30500020
.LOOPOUT ANOP                                                           30600020
&OP      SETA  &OP+1                                                    30700020
&K       SETA  K'&SYSLIST(&OP)                                          30800020
         AIF (&K GE 2).NORM                                             30900020
&K       SETA  2                                                        31000020
.NORM    ANOP                                                           31100020
&START   SETA  2                                                        31200020
         AIF (&OP LT N'&SYSLIST).NOTLAST                                31300020
&MARGIN  SETC  '$'                                                      31400020
.NOTLAST ANOP                                                           31500020
&NRCHAR  SETA  8                                                        31600020
&TACK    SETC  ''                                                       31700020
.LOOPIN  ANOP                                                           31800020
&REMAIN  SETA  &K-&START                                                31900020
         AIF (&REMAIN GE 8).MORE                                        32000020
&TACK    SETC  '&MARGIN'                                                32100020
&NRCHAR  SETA  &REMAIN                                                  32200020
.MORE    ANOP                                                           32300020
&TEXT    SETC  ''                                                       32400020
         AIF (&REMAIN EQ 0).ENDTEXT                                     32500020
&TEXT    SETC  '&SYSLIST(&OP)'(&START,&NRCHAR)                          32600020
.ENDTEXT ANOP                                                           32700020
&LABELNR SETA  &LABELNR+1                                               32800020
&LABELS(&LABELNR) SETC '&TEXT'.'&TACK'                                  32900020
&START   SETA  &START+8                                                 33000020
         AIF ('&TACK' EQ '').LOOPIN                                     33100020
         AIF ('&TACK' EQ '*').LOOPOUT                                   33200020
         MEND                                                           33300020
         MACRO                                                          33400020
         LSTART                                                         33500020
.*                            THIS MACRO IS ISSUED WHEN THE LABEL AREA  33600020
.*                                 OF THE TABLE IS TO BEGIN.            33700020
         GBLC &LABELS(1000)                                             33800020
         GBLA  &LABELNR                                                 33900020
         LCLA  &NDX                                                     34000020
         LINEND                                                         34100020
.LOOP    ANOP                                                           34200020
&NDX     SETA  &NDX+1                                                   34300020
         DC    C'&LABELS(&NDX)'                                         34400020
         AIF   (&NDX LT &LABELNR).LOOP                                  34500020
         MEND                                                           34600020
         MACRO                                                          34700020
         LINEND                                                         34800020
.*                            THIS MACRO IS USED ONLY BY THE LINE       34900020
.*                                 MACRO TO SET THE NUMBER OF ENTRIES   35000020
.*                                 ASSOCIATED WITH EACH LINE.           35100020
         GBLA  &NRENTS                                                  35200020
         GBLC &NRENTSX                                                  35300020
         ORG   &NRENTSX                                                 35400020
         DC    FL1'&NRENTS'                                             35500020
         ORG                                                            35600020
&NRENTS  SETA  0                                                        35700020
B&SYSNDX EQU   *                                                        35800020
&NRENTSX SETC  'B&SYSNDX'                                               35900020
         MEND                                                           36000020
         MACRO                                                          36100020
         SUM   &LOGITEM,&MASK                                           36200020
.*                            THIS MACRO GENERATES A NORMAL EDIT ENTRY  36300020
.*                                 FOR PROCESSING BY THE SUMMARY MODULE 36400020
.*                            &LOGITEM - NAME OF DATA ITEM TO BE SUMMED 36500020