         TITLE 'I F C S A X X C  SUMMARY TABLE FOR A 3340'              00050042
*   MADRID/WINCHESTER SVS REL2 1.7                             @Y17ASRB 00060042
*A000600                                                       @Y17ASRB 00070042
***  DSGEN MACRO     DSGEN MACRO     DSGEN MACRO     DSGEN MACRO    *** 00100042
         SPACE                                                          00150042
         MACRO                                                          00200042
&NAME    DSGEN                                                          00250042
.*                            THIS MACRO GENERATES ONE DSECT WORD       00300042
.*                                 FORMATTED FOR THE SUBJECT LOG RECORD 00350042
.*                                 EACH OPERAND HAS TWO SUB LISTS. THE  00400042
.*                                 FIRST IS THE NAME OF THE LOG ITEM    00450042
.*                                 WHILE THE SECOND IS THE # OF BITS TO 00500042
.*                                 ALLOCATE FOR THIS ITEM. ITEMS MUST   00550042
.*                                 BE DEFINED CONTIGUOUSLY WITHOUT GAPS 00600042
.*                                 UNUSED BIT GROUPS MUST BE GIVEN      00650042
.*                                 DUMMY NAMES. THE NAMES PROVIDED FOR  00700042
.*                                 THE LOG ITEMS MAY THEN BE USED IN    00750042
.*                                 THE CONVERSION MACRO INSTRUCTIONS.   00800042
         GBLA  &BITS(3000),&ITEMNBR,&SHIFT(3000)                        00850042
         GBLC  &ITEM(3000)                                              00900042
         LCLB  &ONLY1,&CTIND                                            00950042
         LCLA  &START1,&START2,&END1,&END2                              01000042
         LCLC  &SYMBOL,&EQUSYM                                          01050042
         LCLA  &OP,&COUNT,&BYTE,&EQUCNT                                 01100042
         ACTR  100000                                                   01150042
.START   AIF   (N'&SYSLIST(&OP+1) LT 3).LOOP                            01200042
         AIF   ('&SYSLIST(&OP+1,3)' EQ 'EQU').LOOP     TEST FOR EQU     01250042
  AIF   ('&SYSLIST(&OP+1,3)' EQ '' OR '&SYSLIST(&OP+1,4)' EQ '').ERR1   01300042
         AIF   ('&SYSLIST(&OP+1,3)' GT '&SYSLIST(&OP+1,4)').ERR3        01350042
&START1  SETA  &SYSLIST(&OP+1,3)        GET START COUNT OF 1            01400042
&START2  SETA  &SYSLIST(&OP+1,4)        GET FIRST END COUNT             01450042
         AGO   .SET2A                   BRANCH AROUND                   01500042
.ERR1    MNOTE '**FIRST SYMBOL CONCATENATION INCOMPLETE**'              01550042
         MEXIT                                                          01600042
.SET2A   AIF   ('&SYSLIST(&OP+1,5)' EQ ''AND '&SYSLIST(&OP+1,6)' EQ '' X01650042
               ).SET2                   TEST FOR NO SECOND              01700042
  AIF   ('&SYSLIST(&OP+1,5)' EQ '' OR '&SYSLIST(&OP+1,6)' EQ '').ERR2   01750042
         AIF   ('&SYSLIST(&OP+1,5)' GT '&SYSLIST(&OP+1,6)').ERR3        01800042
&END1    SETA  &SYSLIST(&OP+1,5)        GET START COUNT OF 2            01850042
&END2    SETA  &SYSLIST(&OP+1,6)        GET END COUNT OF 2              01900042
         AGO   .LOOP                                                    01950042
.SET2    ANOP                                                           02000042
&ONLY1   SETB  1                        INDICATE ONLY ONE CONCATENATION 02050042
         AGO   .LOOP                                                    02100042
.ERR2    MNOTE '**SECOND SYMBOL CONCATENATION INCOMPLETE**'             02150042
         MEXIT                                                          02200042
.ERR3    MNOTE '**START GREATER THAN END CONCATENATION**'               02250042
         MEXIT                                                          02300042
.LOOP    ANOP                                                           02350042
&OP      SETA  &OP+1                                                    02400042
         AIF   (&OP GT N'&SYSLIST).DONE      TEST IF ALL DONE           02450042
&ITEMNBR SETA  &ITEMNBR+1                                               02500042
         AIF   ('&SYSLIST(&OP,2)' NE '').OK1                            02550042
         MNOTE '**NULL BIT COUNT FIELD**'                               02600042
         MEXIT                                                          02650042
.OK1     ANOP                                                           02700042
&SYMBOL  SETC  '&SYSLIST(&OP,1)'                                        02750042
         AIF   ('&SYMBOL' NE '').OK                                     02800042
*              *****     LOG ITEM SYMBOL NOT PROVIDED     *****         02850042
         AIF   ('&SYSLIST(&OP,3)' NE 'EQU').CNT                         02900042
         AGO   .START                   GET NEXT                        02950042
.OK      AIF   (N'&SYSLIST(&OP) LT 3).NO3    TEST FOR OLD FORMAT        03000042
         AIF   ('&SYSLIST(&OP,3)' EQ 'EQU').EQU   TEST FOR EQU          03050042
         AIF   (&ONLY1).OK2             TEST FOR ONLY ONE CONCAT        03100042
&SYMBOL  SETC  '&SYMBOL.&START1.&END1'       GET 1 AND 2 CONCAT         03150042
         AGO   .NO3                     BRANCH AROUND                   03200042
.OK2     ANOP                                                           03250042
&SYMBOL  SETC  '&SYMBOL.&START1'        GET 1 CONCATENATED              03300042
.NO3     ANOP                                                           03350042
&SYMBOL  EQU   *+&BYTE                                                  03400042
&ITEM(&ITEMNBR) SETC '&SYMBOL'          GET LABEL IN GLOBAL             03450042
&BITS(&ITEMNBR) SETA &SYSLIST(&OP,2)                                    03500042
&SHIFT(&ITEMNBR) SETA &COUNT-&BYTE*8                                    03550042
.CNT     ANOP                                                           03600042
&CTIND   SETB  1                        SET COUNT INDICATOR             03650042
&COUNT   SETA  &COUNT+&SYSLIST(&OP,2)                                   03700042
&BYTE    SETA  &COUNT/8                                                 03750042
         AIF   (N'&SYSLIST(&OP) LT 3).START  TEST FOR OLD FORMAT        03800042
         AIF   (&ONLY1).TSTST           TEST FOR ONLY ONE CONCAT        03850042
         AIF   (&END1 EQ &END2).TSTST   TEST FOR SECOND END             03900042
&END1    SETA  &END1+1                  INCREMENT COUNT                 03950042
&OP      SETA  &OP-1                    DECREMENT INCREMENT             04000042
         AGO   .LOOP                    GENERATE NEXT                   04050042
.TSTST   ANOP                                                           04100042
         AIF   (&START1 EQ &START2).LPDONE   TEST FOR END               04150042
         AIF   (&ONLY1).NSET1           TEST FOR ONLY ONE CONCAT        04200042
&END1    SETA  &SYSLIST(&OP,5)          RE-INIT SECOND START COUNT      04250042
.NSET1   ANOP                                                           04300042
&OP      SETA  &OP-1                    DECREMENT INDEX                 04350042
&START1  SETA  &START1+1                INCREMENT FIRST COUNT           04400042
         AGO   .LOOP                    GO DO NEXT                      04450042
.LPDONE  ANOP                                                           04500042
&ONLY1   SETB  0                        CLEAR INDICATOR                 04550042
         AGO   .START                   GO TEST FOR MORE SUB-LISTS      04600042
.DONE    AIF   (&COUNT-&COUNT/8*8 NE 0).ERR  TEST FOR MULTIPLE OF EIGHT 04650042
         AIF   (&CTIND EQ 0).END        NO DS IF NO COUNT               04700042
&COUNT   SETA  &COUNT/8                 GET NUMBER OF BYTES             04750042
&NAME    DS    &COUNT.C                                                 04800042
.END     MEXIT                                                          04850042
.ERR     MNOTE '**BIT COUNT FLDS DO NOT TOTAL MULTIPLE OF 8**'          04900042
         MEXIT                                                          04950042
.EQU     AIF   ('&SYSLIST(&OP,4)' NE '').EQU1     TEST FOR NULL LABEL   05000042
.ERR4    MNOTE '**EQU OPERAND OMITTED OR NOT FOUND**'                   05050042
         MEXIT                                                          05100042
.EQU1    AIF   (&SYSLIST(&OP,2) LT 16).EQU2  COUNT OVER FIFTEEN         05150042
*****               THE FOLLOWING STATEMENT                *****        05200042
*****     NUMBER OF BITS EXCEED 15 - DO NOT USE AS BIN     *****        05250042
.EQU2    ANOP                                                           05300042
&EQUCNT  SETA  0                        CLEAR COUNTER                   05350042
&EQUSYM  SETC  '&SYSLIST(&OP,4)'        GET EQU OPERAND                 05400042
.EQULOP  ANOP                                                           05450042
&EQUCNT  SETA  &EQUCNT+1                INCREMENT INDEX                 05500042
         AIF   ('&ITEM(&EQUCNT)' EQ '&EQUSYM').EQUOUT  LABEL FOUND?     05550042
         AIF   (&EQUCNT EQ &ITEMNBR).ERR4    ALL TESTED?                05600042
         AGO   .EQULOP                  NO-GET NEXT                     05650042
.EQUOUT  ANOP                                                           05700042
&ITEM(&ITEMNBR) SETC '&SYMBOL'          GET LABEL NAME                  05750042
&BITS(&ITEMNBR) SETA &SYSLIST(&OP,2)    GET NUMBER OF BITS              05800042
&SHIFT(&ITEMNBR) SETA &SHIFT(&EQUCNT)   GET SHIFT COUNT                 05850042
&SYMBOL  EQU   &EQUSYM                  THIS SYMBOL EQUATED             05900042
         AGO   .START                   RETURN FOR NEXT                 05950042
         MEND                                                           06000042
         EJECT                                                          06050042
***  BIN MACRO       BIN MACRO       BIN MACRO       BIN MACRO      *** 06100042
         SPACE                                                          06150042
         MACRO                                                          06200042
         BIN                                                            06250042
.*                                 &SYSLIST(&OP,1) - NAME OF LOG ITEM   06300042
.*                                      RECORD DSECT                    06350042
.*                                 $SYSLIST(&OP,2) - NBR OF SPACES      06400042
.*                                      TO SKIP ON MULTIPLE             06450042
.*                                      PRINT OR NBR OF SPACES          06500042
.*                                      TO BACK UP FROM COLUMN FOR      06550042
.*                                      START OF PRINTING. THE LETTER   06600042
.*                                      B PRECEEDS THE NUMBER (B5) IF   06650042
.*                                      THE LATTER IS DESIRED. OMISSION 06700042
.*                                      OF THIS OPERAND FORCES OPTION 2 06750042
.*                                      WITH BACKUP SPACING EQUAL TO    06800042
.*                                 THE NUMBER OF BITS IN THE ITEM       06850042
.*                                 DEFINITION (VIA MACRO 'DSGEN').      06900042
.*                            A LIMIT OF 15 BITS IS IMPOSED FOR THE     06950042
.*                                 TOTAL NUMBER OF BITS TO PRINT.       07000042
         GBLA  &INITIAL                                                 07050042
         GBLB  &DIAGTST,&DIAGSET,&DIAGLIN                               07100042
         GBLC  &ITEM(3000),&DSECT                                       07150042
         GBLA  &BITS(3000),&ITEMNBR,&SHIFT(3000),&NRENTS                07200042
         LCLB  &B,&SUB                                                  07250042
         LCLA  &IBITS,&NDX,&ISHIFT,&K                                   07300042
         LCLA  &TEMP,&T,&OP                                             07350042
         LCLC  &S                                                       07400042
         ACTR  500000                                                   07450042
         AIF   (&DIAGTST EQ 0).NOMSG                                    07500042
         AIF   (&INITIAL EQ 0).NOMSG                                    07550042
         AIF   (&DIAGLIN EQ 1).NOMSG                                    07600042
         MNOTE '**NO LINE ASSOCIATED WITH THIS DATA**'                  07650042
*****THE FOLLOWING GENERATED FOR TEST PURPOSES*****                     07700042
*        LINE                                                           07750042
         LINE                                                           07800042
.NOMSG   ANOP                                                           07850042
         AIF   (K'&SYSLIST(1) EQ K'&SYSLIST(1,1)).LOOP                  07900042
&SUB     SETB  1                                                        07950042
.LOOP    ANOP                                                           08000042
&OP      SETA  &OP+1                                                    08050042
.LOOP1   ANOP                                                           08100042
&NDX     SETA  &NDX+1                                                   08150042
         AIF   ('&ITEM(&NDX)' EQ '&SYSLIST(&OP,1)').FOUND               08200042
         AIF   (&NDX LT &ITEMNBR).LOOP1                                 08250042
         MNOTE '**LOG ITEM NOT DEFINED**'                               08300042
         MEXIT                                                          08350042
.FOUND   ANOP                                                           08400042
&ISHIFT  SETA  &SHIFT(&NDX)                                             08450042
&IBITS   SETA  &BITS(&NDX)                                              08500042
         AIF   (&SUB EQ 1).SUB00                                        08550042
         AIF   ('&SYSLIST(3)' EQ '').SETT                               08600042
&IBITS   SETA  &SYSLIST(3)                                              08650042
         AGO   .SETT                                                    08700042
.SUB00   AIF   ('&SYSLIST(&OP,3)' EQ '').SETT                           08750042
&IBITS   SETA  &SYSLIST(&OP,3)                                          08800042
.SETT    ANOP                                                           08850042
&T       SETA  &IBITS-1                                                 08900042
&B       SETB  0                                                        08950042
         AIF   (&IBITS GT 0 AND &IBITS LT 16).SUB0                      09000042
         MNOTE '**NO. OF BITS OUTSIDE RANGE OF 1-15**'                  09050042
         MEXIT                                                          09100042
.SUB0    AIF   (&SUB EQ 1).SUBA                                         09150042
         AIF   ('&SYSLIST(2)' EQ '').BACKUP                             09200042
&K       SETA  K'&SYSLIST(2)                                            09250042
&B       SETB  ('&SYSLIST(2)'(1,1) EQ 'B')                              09300042
&S       SETC  '&SYSLIST(2)'(&B+1,&K-&B)                                09350042
         AGO   .SUBB                                                    09400042
.SUBA    ANOP                                                           09450042
         AIF   ('&SYSLIST(&OP,2)' EQ '').BACKUP                         09500042
&K       SETA  K'&SYSLIST(&OP,2)                                        09550042
&B       SETB  ('&SYSLIST(&OP,2)'(1,1) EQ 'B')                          09600042
&S       SETC  '&SYSLIST(&OP,2)'(&B+1,&K-&B)                            09650042
.SUBB    ANOP                                                           09700042
&T       SETA  &S                                                       09750042
.BACKUP  ANOP                                                           09800042
&NRENTS  SETA  &NRENTS+1                                                09850042
&TEMP    SETA  &ISHIFT                                                  09900042
         AIF   (&IBITS NE 1 OR &B NE 0).BIN2                            09950042
         DC    AL.12(&SYSLIST(&OP,1)-&DSECT),XL.4'&TEMP'                10000042
         AGO   .OUT                                                     10050042
.BIN2    AIF   (&SUB EQ 1).BIN2A                                        10100042
         AIF   ('&SYSLIST(2)' NE '').BIN3                               10150042
         AGO   .BIN2B                                                   10200042
.BIN2A   AIF   ('&SYSLIST(&OP,2)' NE '').BIN3                           10250042
.BIN2B   ANOP                                                           10300042
&B       SETB  1                                                        10350042
.BIN3    ANOP                                                           10400042
         DC    AL.12(&SYSLIST(&OP,1)-&DSECT),XL.4'C'                    10450042
         DC    BL.1'&B',AL.7(&T),AL.4(&IBITS),FL.4'&ISHIFT'             10500042
.OUT     ANOP                                                           10550042
&NDX     SETA  0                                                        10600042
         AIF   (&SUB EQ 0).OUTA                                         10650042
         AIF   (&OP LT N'&SYSLIST).LOOP                                 10700042
.OUTA    ANOP                                                           10750042
         MEND                                                           10800042
         EJECT                                                          10850042
***  HEX MACRO       HEX MACRO       HEX MACRO       HEX MACRO      *** 10900042
         SPACE                                                          10950042
         MACRO                                                          11000042
         HEX                                                            11050042
.*                            THIS MACRO FACILITATES GENERATION OF THE  11100042
.*                                 TABLE ENTRIES SPECIFYING HEX TYPE    11150042
.*                                 CONVERSIONS.                         11200042
.*                            &SYSLIST(&OP,1) - NAME OF DATA ITEM TO BE 11250042
.*                                 CONVERTED                            11300042
.*                            &SYSLIST(&OP,2) - # OF SPACES TO SKIP ON  11350042
.*                                 MULTIPLE PRINT OR NBR OF SPACES TO   11400042
.*                                 BACK UP FROM COLUMN FOR START OF     11450042
.*                                 PRINTING. THE LETTER B PRECEEDS THE  11500042
.*                                 NUMBER (B8) IF THE LATTER OPTION IS  11550042
.*                                 DESIRED. OMISSION OF THIS OPERAND    11600042
.*                                 FORCES OPTION 2 WITH BACKUP SPACING  11650042
.*                                 EQUAL TO THE NUMBER OF BYTES SPECI-  11700042
.*                                 FIED BY THE NEXT OPERAND (TWICE THIS 11750042
.*                                 NUMBER IF SUFFIX IS EXPLICITLY OR    11800042
.*                                 IMPLICITLY B).                       11850042
.*                            &SYSLIST(&OP,3) - NUMBER OF BYTES TO      11900042
.*                                 PROCESS. THIS NUMBER IS SUFFIXED     11950042
.*                                 WITH AN L,R, OR B TO STIPULATE       12000042
.*                                 PRINTING OF THE LEFT HALF, RIGHT     12050042
.*                                 HALF, OR BOTH HALVES OF THE BYTE     12100042
.*                                 RESPECTIVELY. OMISSION OF THIS       12150042
.*                                 OPERAND DEFAULTS TO B WITH THE NUM-  12200042
.*                                 BER OF BYTES EQUAL TO THE ITEM LNGTH 12250042
.*                            A NEW ENTRY IS GENERATED ONLY WHEN NECES- 12300042
.*                                 SARY. THIS MACRO MUST BE THE FIRST   12350042
.*                                 MACRO INSTRUCTION ISSUED FOR THE     12400042
.*                                 SUBJECT LINE(S).                     12450042
         GBLA  &BITS(3000),&ITEMNBR,&SHIFT(3000),&NRENTS                12500042
         GBLC  &ITEM(3000),&DSECT                                       12550042
         GBLA  &INITIAL                                                 12600042
         GBLB  &DIAGTST,&DIAGSET,&DIAGLIN                               12650042
         LCLB  &B,&SUB                                                  12700042
         LCLA  &IBITS,&NDX,&ISHIFT,&K,&T,&CODE,&BYTESP,&OP              12750042
         LCLC  &S,&LETTER                                               12800042
         ACTR  500000                                                   12850042
         AIF   (&DIAGTST EQ 0).NOMSG                                    12900042
         AIF   (&INITIAL EQ 0).NOMSG                                    12950042
         AIF   (&DIAGLIN EQ 1).NOMSG                                    13000042
         MNOTE '**NO LINE ASSOCIATED WITH THIS DATA**'                  13050042
*****THE FOLLOWING GENERATED FOR TEST PURPOSES*****                     13100042
*        LINE                                                           13150042
         LINE                                                           13200042
.NOMSG   ANOP                                                           13250042
         AIF   (K'&SYSLIST(1) EQ K'&SYSLIST(1,1)).LOOP                  13300042
&SUB     SETB  1                                                        13350042
.LOOP    ANOP                                                           13400042
&OP      SETA  &OP+1                                                    13450042
.LOOP1   ANOP                                                           13500042
&NDX     SETA  &NDX+1                                                   13550042
         AIF   ('&ITEM(&NDX)' EQ '&SYSLIST(&OP,1)').FOUND               13600042
         AIF   (&NDX LT &ITEMNBR).LOOP1                                 13650042
         MNOTE '**LOG ITEM NOT DEFINED**'                               13700042
         MEXIT                                                          13750042
.FOUND   ANOP                                                           13800042
&ISHIFT  SETA  &SHIFT(&NDX)                                             13850042
&IBITS   SETA  &BITS(&NDX)                                              13900042
         AIF   (&ISHIFT EQ 0 OR &ISHIFT EQ 4).ALIGN                     13950042
.ERR     MNOTE '**DATA NOT ALLIGNED ON HEX OR BYTE BOUNDARY**'          14000042
         MEXIT                                                          14050042
.ALIGN   ANOP                                                           14100042
&CODE    SETA  1                                                        14150042
         AIF   (&SUB EQ 1).SUBA                                         14200042
&K       SETA  K'&SYSLIST(3)                                            14250042
         AGO   .SUBB                                                    14300042
.SUBA    ANOP                                                           14350042
&K       SETA  K'&SYSLIST(&OP,3)                                        14400042
.SUBB    ANOP                                                           14450042
         AIF   (&K EQ 1).ERR3                                           14500042
         AIF   (&IBITS-(&IBITS/4)*4 EQ 0).OK                            14550042
         MNOTE '**BIT LENGTH SPECIFICATION INCONSISTENT WITH CONTROL**' 14600042
         MEXIT                                                          14650042
.OK      AIF   (&SUB EQ 1).SUBC                                         14700042
         AIF   ('&SYSLIST(3)' EQ '').USEDEFN                            14750042
&LETTER  SETC  '&SYSLIST(3)'(&K,1)                                      14800042
&S       SETC  '&SYSLIST(3)'(1,&K-1)                                    14850042
         AGO   .SUBD                                                    14900042
.SUBC    ANOP                                                           14950042
         AIF   ('&SYSLIST(&OP,3)' EQ '').USEDEFN                        15000042
&LETTER  SETC  '&SYSLIST(&OP,3)'(&K,1)                                  15050042
&S       SETC  '&SYSLIST(&OP,3)'(1,&K-1)                                15100042
.SUBD    ANOP                                                           15150042
&BYTESP  SETA  &S                                                       15200042
         AIF   ('&LETTER' EQ 'B').BOTH                                  15250042
         AIF   ('&LETTER' EQ 'L').LEFT                                  15300042
         AIF   ('&LETTER' EQ 'R').RIGHT                                 15350042
.ERR3    MNOTE '**PARAMETER 3 INCOMPLETE-DSGEN DEFINITION USED**'       15400042
         AGO   .USEDEFN                                                 15450042
.RIGHT   ANOP                                                           15500042
&CODE    SETA  2                                                        15550042
         AGO   .L                                                       15600042
.LEFT    ANOP                                                           15650042
&CODE    SETA  1                                                        15700042
         AGO   .L                                                       15750042
.USEDEFN ANOP                                                           15800042
&BYTESP  SETA  &IBITS/8                                                 15850042
.BOTH    AIF   (&ISHIFT NE 0).ERR                                       15900042
&CODE    SETA  3                                                        15950042
&T       SETA  &BYTESP*2-1                                              16000042
&S       SETC  '&T'                                                     16050042
.OK2     AIF   (&ISHIFT EQ 0).L                                         16100042
&CODE    SETA  2                                                        16150042
.L       ANOP                                                           16200042
&B       SETB  1                                                        16250042
         AIF   (&SUB EQ 1).SUBE                                         16300042
         AIF   ('&SYSLIST(2)' EQ '').BACKUP                             16350042
&K       SETA  K'&SYSLIST(2)                                            16400042
&B       SETB  ('&SYSLIST(2)'(1,1) EQ 'B')                              16450042
&S       SETC  '&SYSLIST(2)'(&B+1,&K-&B)                                16500042
         AGO   .SUBF                                                    16550042
.SUBE    ANOP                                                           16600042
         AIF   ('&SYSLIST(&OP,2)' EQ '').BACKUP                         16650042
&K       SETA  K'&SYSLIST(&OP,2)                                        16700042
&B       SETB  ('&SYSLIST(&OP,2)'(1,1) EQ 'B')                          16750042
&S       SETC  '&SYSLIST(&OP,2)'(&B+1,&K-&B)                            16800042
.SUBF    ANOP                                                           16850042
.BACKUP  ANOP                                                           16900042
&NRENTS  SETA  &NRENTS+1                                                16950042
         AIF   (&BYTESP GT 0 AND &BYTESP LT 16).SUB0                    17000042
         MNOTE '**NO. OF BYTES OUTSIDE RANGE OF 1-15**'                 17050042
         MEXIT                                                          17100042
.SUB0    AIF   (&SUB EQ 1).SUBG                                         17150042
         DC    AL.12(&SYSLIST(1)-&DSECT),XL.4'A'                        17200042
         AGO   .SUBH                                                    17250042
.SUBG    ANOP                                                           17300042
         DC    AL.12(&SYSLIST(&OP,1)-&DSECT),XL.4'A'                    17350042
.SUBH    ANOP                                                           17400042
         DC    BL.1'&B',FL.7'&S',AL.4(&BYTESP),FL.4'&CODE'              17450042
.OUT     ANOP                                                           17500042
&NDX     SETA  0                                                        17550042
         AIF   (&SUB EQ 0).OUTA                                         17600042
         AIF   (&OP LT N'&SYSLIST).LOOP                                 17650042
.OUTA    ANOP                                                           17700042
         MEND                                                           17750042
         EJECT                                                          17800042
***  LINE MACRO      LINE MACRO      LINE MACRO      LINE MACRO     *** 17850042
         SPACE                                                          17900042
         MACRO                                                          17950042
&NAME    LINE  &DATA,&LABEL,&SKIP=                                      18000042
.*                            THIS MACRO ESTABLISHES THE MARGINS OR     18050042
.*                                 COLUMN SETTINGS FOR EACH LINE. IT    18100042
.*                                 GENERATES NECESSARY CARRIAGE CONTROL 18150042