         MACRO                                                          00062020
         MESSAGE &TEXT                                                  00062120
.*                                                                      00062220
.* THIS MACRO IS USED TO DEFINE THE MESSAGE FORMATS. EACH MESSAGE IS    00062320
.* GENERATED INTO A FORM ACCEPTABLE TO THE TSO I/O ROUTINES.            00062420
.*                                                                      00062520
         LCLA  &LENGTH                                                  00062620
         LCLC  &NAME                                                    00062720
&LENGTH  SETA  K'&TEXT-2               LENGTH OF MESSAGE MINUS QUOTES   00062820
&NAME    SETC  '&TEXT'(2,8)            USE 8 BYTES OF MESSAGE ID AS     00062920
.*                                        LABEL                         00063020
&NAME    DC    0H'0'                   ALIGN MESSAGE SEGMENT            00063120
         DC    AL2(&LENGTH+4)          SEGMENT LENGTH                   00063220
         DC    AL2(0)                  FIRST SEGMENT OFFSET             00063320
         DC    C&TEXT                  MESSAGE TEXT                     00063420
         MEND                                                           00063520
P10      TITLE 'IKJEFP10   TSO PARSE MESSAGE MODULE   VERSION 2 DATE 3/*00063920
               9/71'                                                    00064020
*********************************************************************** 00064220
*                                                                     * 00064320
* TITLE -- 'IKJEFP10  MESSAGE MODULE FOR TSO PARSE ROUTINE            * 00064420
*                                                                     * 00064520
* STATUS -- VERSION 4                                                 * 00064602
*                                                                     * 00064720
* FUNCTION --  THIS MODULE CONTAINS THE MESSAGE SEGMENTS USED BY      * 00064820
*    THE TSO PARSE ROUTINE (MODULE IKJEFP00) TO CONSTRUCT THE         * 00064920
*    MESSAGES WHICH MAY BE SENT TO THE TERMINAL USER IN THE COURSE    * 00065020
*    OF ITS PROCESSING.  THE MESSAGE SEGMENTS ARE IN THE FORMAT       * 00065120
*    REQUIRED BY THE TSO I/O SERVICE ROUTINES.  THEY ARE ACCESSED     * 00065220
*    BY INDEXING INTO A TABLE WHICH CONTAINS THE ADDRESSES OF         * 00065320
*    THE MESSAGE SEGMENTS.                                            * 00065420
*                                                                     * 00065520
* ENTRY POINTS - THIS MODULE CONTAINS NO EXECUTABLE CODE.             * 00065620
*         IKJEFP10:  ADDRESS OF THE TABLE USED TO ACCESS THE          * 00065720
*                    MESSAGE SEGMENTS.                                * 00065820
*                                                                     * 00065920
* INPUT -- N/A                                                        * 00066020
*                                                                     * 00066120
* OUTPUT -- N/A                                                       * 00066220
*                                                                     * 00066320
* EXTERNAL REFERENCES -- NONE                                         * 00066420
*                                                                     * 00066520
* EXISTS,NORMAL -- N/A                                                * 00066620
*                                                                     * 00066720
* EXITS,ERROR -- N/A                                                  * 00066820
*                                                                     * 00066920
* TABLES/WORK AREAS -- THE MESSAGE SEGMENTS ARE ACCESSED BY           * 00067020
*    INDEXING INTO A TABLE WHICH CONTAINS THE ADDRESSES OF THE        * 00067120
*    MESSAGE SEGMENTS.                                                * 00067220
*                                                                     * 00067320
* ATTRIBUTES -- N/A                                                   * 00067420
*                                                                     * 00067520
* CHARACTER CODE DEPENDENCY --  CLASS A:  THE OPERATION OF THIS       * 00067620
*    MODULE DOES NOT DEPEND UPON A PARTICULAR INTERNAL REPRESENTATION * 00067720
*    OF THE EXTERNAL CHARACTER SET.                                   * 00067820
*                                                                     * 00067920
* NOTES -- THE BEGINNING OF THIS MODULE CONTAINS A PRIVATE MACRO      * 00068020
*    WHICH IS USED TO DEFINE THE MESSAGE SEGMENT FORMAT.              * 00068120
*                                                                     * 00068220
* RELEASE 20 SUPPORT CODE -- 20035                                    * 00068320
*                                                                     * 00068402
* RELEASE 2.0 (VS) SUPPORT CODE -- Y02666                             * 00068502
*                                                                     * 00068620
*********************************************************************** 00068920
         EJECT                                                          00069020
IKJEFP10 CSECT                                                          00080020
* M1564                                                                 00082020
         SPACE                                                          00090020
         DC    A(IKJ56700)             CODE = 0  ENTER                  00100020
         DC    A(IKJ56701)             CODE = 4  MISSING                00110020
         DC    A(IKJ56703)             CODE = 8  REENTER                00120020
         DC    A(IKJ56704)             CODE = 12 AMBIGUOUS              00130020
         DC    A(IKJ56705)             CODE = 16 MISSING PASSWORD       00140020
         DC    A(IKJ56702)             CODE = 20 INVALID                00150020
         DC    A(IKJ56706)             CODE = 24 END QUOTE ASSUMED      00160020
         DC    A(IKJ56707)             CODE = 28 RIGHT PAREN ASSUMED    00170020
         DC    A(IKJ56708)             CODE = 32 INVALID CURRENT        00180003
*                                                PASSWORD      @Z40RPKQ 00183003
         DC    A(IKJ56709)             CODE = 36 INVALID DATA SET NAME  00190020
         DC    A(IKJ56710)             CODE = 40 INVALID USERID         00200020
         DC    A(IKJ56711)             CODE = 44 INVALID ADDRESS        00210020
         DC    A(IKJ56712)             CODE = 48 INVALID KEYWORD        00220020
         DC    A(IKJ56713)             CODE = 52 INVALID VALUE          00230020
         DC    A(IKJ56714)             CODE = 56 ENTER CURRENT PASSWORD 00240003
*                                                              @Z40RPKQ 00243003
         DC    A(IKJ56715)             CODE = 60 INVALID STRING         00250020
         DC    A(IKJ56716)             CODE = 64 EXTRANEOUS INFORMATION 00260020
         DC    A(IKJ56717)             CODE = 68 INVALID          M1564 00264020
         DC    A(IKJ56718)             CODE = 72 REENTER+        Y01156 00266001
         DC    A(IKJ56719)             CODE = 76 INVALID JOBNAME Y02666 00268002
         DC    A(IKJ56720)             CODE = 80 INVALID DDNAME  Y02666 00268402
         DC    A(IKJ56721)             CODE = 84 INVALID NEW PASSWORD   00268703
*                                                              @Z40RPKQ 00269003
         DC    A(IKJ56722)             CODE = 88 ENTER NEW PASSWORD     00269303
*                                                              @Z40RPKQ 00269603
         SPACE                                                          00270020
         MESSAGE 'IKJ56700A ENTER  -     '                       Y01156 00280001
         SPACE                                                          00290020
         MESSAGE 'IKJ56701I MISSING '                                   00300020
         SPACE                                                          00310020
         MESSAGE 'IKJ56702I INVALID , '                                 00320020
         SPACE                                                          00330020
         MESSAGE 'IKJ56703A REENTER -    '                       Y01156 00340001
         SPACE                                                          00350020
         MESSAGE 'IKJ56704I  AMBIGUOUS'                                 00360020
         SPACE                                                          00370020
         MESSAGE 'IKJ56705I MISSING PASSWORD FOR '                      00380020
         SPACE                                                          00390020
         MESSAGE 'IKJ56706I ENDING QUOTE ASSUMED, '                     00400020
         SPACE                                                          00410020
         MESSAGE 'IKJ56707I RIGHT PARENTHESIS ASSUMED, '                00420020
         SPACE                                                          00430020
         MESSAGE 'IKJ56708I INVALID CURRENT PASSWORD '         @Z40RPKQ 00440003
         SPACE                                                          00450020
         MESSAGE 'IKJ56709I INVALID DATA SET NAME, '                    00460020
         SPACE                                                          00470020
         MESSAGE 'IKJ56710I INVALID USERID, '                           00480020
         SPACE                                                          00490020
         MESSAGE 'IKJ56711I INVALID ADDRESS, '                          00500020
         SPACE                                                          00510020
         MESSAGE 'IKJ56712I INVALID KEYWORD, '                          00520020
         SPACE                                                          00530020
         MESSAGE 'IKJ56713I INVALID VALUE, '                            00540020
         SPACE                                                          00550020
         MESSAGE 'IKJ56714A ENTER CURRENT PASSWORD FOR -'      @Z40RPKQ 00560003
         SPACE                                                          00570020
         MESSAGE 'IKJ56715I INVALID STRING, '                           00580020
         SPACE                                                          00590020
         MESSAGE 'IKJ56716I EXTRANEOUS INFORMATION - IGNORED, '         00600020
         SPACE                                                          00600402
         MESSAGE 'IKJ56717I INVALID '                                   00602020
         SPACE                                                          00604001
         MESSAGE 'IKJ56718A REENTER+ -   '                       Y01156 00606001
         SPACE                                                          00606402
         MESSAGE 'IKJ56719I INVALID JOBNAME, '                   Y02666 00606802
         SPACE                                                          00608002
         MESSAGE 'IKJ56720I INVALID DDNAME, '                    Y02666 00608402
         SPACE                                                          00610003
         MESSAGE 'IKJ56721I INVALID NEW PASSWORD '             @Z40RPKQ 00660003
         SPACE                                                          00710003
         MESSAGE 'IKJ56722I ENTER NEW PASSWORD FOR -'          @Z40RPKQ 00760003
         END                                                            00810003
