         MACRO                                                          02000020
&NAME    IKJEBEMB &L2,&TEXT                                             04000020
         LCLC  &GNAME,&MNAME,&ID,&INAME,&JNAME                          06000020
&GNAME   SETC  'MSG'.'&SYSNDX'                                          08000020
&ID      SETC  '''IKJ52'''                                              10000020
          AIF ('&TEXT'(2,1) NE ' ').TAG6  CHECK FOR MSG 0               12000020
          AIF (N'&L2 EQ 0).TAG9  BRANCH IF NO LEVEL 2                   14000020
&MNAME    SETC   '000'                                                  16000020
          AGO   .TAG7                                                   18000020
.TAG9      ANOP                                                         20000020
          DS    0F                                                      22000020
          AGO   .TAG10                                                  24000020
.TAG6      ANOP                                                         26000020
&MNAME   SETC  '&TEXT'(2,3)                                             28000020
.TAG7    ANOP                                                           30000020
&INAME   SETC  'M'.'&MNAME'                                             32000020
&JNAME   SETC  '&INAME'.'&SYSNDX'                                       34000020
&JNAME   DS    0F                                                       36000020
.TAG10   ANOP                                                           38000020
         AIF   (N'&L2 EQ 0).TAG1                                        40000020
&NAME    DC    A(&L2) PTR TO LEVEL 2 MESSAGE                            42000020
         AGO   .TAG3                                                    44000020
.TAG1    ANOP                                                           46000020
&NAME    DC    A(0) NO SECOND LEVEL MESSAGES                            48000020
.TAG3    ANOP                                                           50000020
         DC    AL2(&GNAME-*) LENGTH OF RECORD                           52000020
         DC    AL2(0) ALWAYS 0                                          54000020
         AIF ('&TEXT'(2,1) EQ ' ').TAG8                                 56000020
         DC    C&ID MESSAGE ID                                          58000020
.TAG8    ANOP                                                           60000020
         DC    C&TEXT MESSAGE TEXT                                      62000020
&GNAME   EQU   *                                                        64000020
         SPACE 2                                                        66000020
         MEND                                                           68000020
