         MACRO                                                          03000000
&NAME    IDARST14                                                       06000000
&NAME    LH    R14,PLHRETO(,RPLH)      GET CURRENT OFFSET               09000000
         SH    R14,HWORD4              BACK UP 1 WORD                   12000000
         STH   R14,PLHRETO(,RPLH)      STORE NEW OFFSET                 15000000
         L     R14,PLHRET1(R14,RPLH)   RESTORE R14                      18000000
         MEND                                                           21000000
