         MACRO                                                          03000000
&NAME    IDASVR14                                                       06000000
&NAME    LH    R15,PLHRETO(,RPLH)      GET CURRENT OFFSET               09000000
         ST    R14,PLHRET1(R15,RPLH)   STORE R14                        12000000
         LA    R15,4(,R15)             ADVANCE OFFSET                   15000000
         STH   R15,PLHRETO(,RPLH)      STORE NEW OFFSET                 18000000
         MEND                                                           21000000
