         MACRO                                                          00070000
&NAME    AXR#  &REG1,&REG2                                              00140000
         CNOP  0,4                                                      00560000
&NAME    B     *+8 ..........RECURSIVE CALL TO QSIM TO SIMULATE AXR     00630000
         DC    H'0'                                                     00700000
         ADR   &REG1,&REG2 ........'AXR  REG1,REG2'  IS MEANT           00770000
         ORG   *-2                                                      00840000
         DC    X'36'                                                    00910000
         ORG   *+1                                                      00980000
         L     GR0,*-4                                                  01050000
         BALR  GRR,GRL                                                  01120000
         LR    GRL,GR4 ........RESTORE GRL                              01190000
         MEND                                                           01680000
         MACRO                                                          01750000
&NAME    SXR#  &REG1,&REG2                                              01820000
         CNOP  0,4                                                      02240000
&NAME    B     *+8 ..........RECURSIVE CALL TO QSIM TO SIMULATE SXR     02310000
         DC    H'0'                                                     02380000
         SDR   &REG1,&REG2 ........'SXR  REG1,REG2'  IS MEANT           02450000
         ORG   *-2                                                      02520000
         DC    X'37'                                                    02590000
         ORG   *+1                                                      02660000
         L     GR0,*-4                                                  02730000
         BALR  GRR,GRL                                                  02800000
         LR    GRL,GR4 ........RESTORE GRL                              02870000
         MEND                                                           03360000
         MACRO                                                          03430000
&NAME    MXDR# &REG1,&REG2                                              03500000
         CNOP  0,4                                                      03920000
&NAME    B     *+8 ..........RECURSIVE CALL TO QSIM TO SIMULATE MXDR    03990000
         DC    H'0'                                                     04060000
         MER   &REG1,&REG2 ........'MXDR  REG1,REG2'  IS MEANT          04130000
         ORG   *-2                                                      04200000
         DC    X'27'                                                    04270000
         ORG   *+1                                                      04340000
         L     GR0,*-4                                                  04410000
         BALR  GRR,GRL                                                  04480000
         LR    GRL,GR4 ........RESTORE GRL                              04550000
         MEND                                                           05040000
         MACRO                                                          05110000
&NAME    MXD#  &REG1,&OPND2                                             05180000
         CNOP  0,4                                                      05600000
&NAME    LD    &REG1+2,&OPND2 ....MACRO FOR 'MXD  REG1,OPND2'           05670000
         B     *+8 ..........RECURSIVE CALL TO QSIM TO SIMULATE MXDR    05740000
         DC    H'0'                                                     05810000
         MER   &REG1,&REG1+2 ........'MXDR REG1,REG1+2'  IS MEANT       05880000
         ORG   *-2                                                      05950000
         DC    X'27'                                                    06020000
         ORG   *+1                                                      06090000
         L     GR0,*-4                                                  06160000
         BALR  GRR,GRL                                                  06230000
         LR    GRL,GR4 ........RESTORE GRL                              06300000
         MEND                                                           06790000
         EJECT                                                          07560000
IEAXPALL CSECT                                                          07630000
         PRINT ON,NOGEN,DATA                                            07640000
         SPACE                                                          07700000
*********************************************************************** 07770000
*                                                                     * 07840000
* MODULE NAME - IEAXPALL                                              * 07910000
*                                                                     * 07980000
* TITLE - SIMULATOR INTERFACE FOR EXTENDED PRECISION INSTRUCTIONS     * 08050000
*                                                                     * 08120000
* FUNCTION OPERATION - IEAXPALL HANDLES OPERATION INTERRUPTS. IF THE  * 08190000
*        OP-CODE INTERRUPT OCCURRED AS A RESULT OF AN EXTENDED        * 08260000
*        PRECISION INSTRUCTION, CONTROL IS PASSED TO THE SIMULATOR    * 08330000
*        KERNEL. THE PSW IS MODIFIED APPROPRIATELY AFTER SIMULATION.  * 08400000
*                                                                     * 08470000
* STATUS - CHANGE LEVEL 0                                             * 08540000
*                                                                     * 08610000
* ENTRY POINT - IEAXPALL                                              * 08680000
*                                                                     * 08750000
* INPUT - REGISTER 1 CONTAINS THE POINTER TO A PARAMETER LIST WHICH   * 08820000
*        CONTAINS A PTR TO THE PIE, A PTR TO AN AREA WITH REGS AT     * 08890000
*        INTERRUPT TIME (0-15), A PTR TO A WORK AREA, A PTR TO A BYTE * 08960000
*        WHICH IS NON-ZERO IF THE LAST BIT OF DXR IS NOT TO BE        * 09030000
*        GUARANTEED.                                                  * 09100000
*                                                                     * 09170000
* TABLES/WORK AREAS -                                                 * 09240000
*        1 - RC - REG CODE EXTRACTED FROM THE INSTRUCTION TO BE       * 09310000
*        SIMULATED.                                                   * 09380000
*                                                                     * 09450000
* EXITS - RETURN IS ALWAYS TO THE CALLING ROUTINE VIA REG 14. A RETURN* 09520000
*        CODE IS PLACED IN REG 15.                                    * 09590000
*        CODE    MEANING                                              * 09660000
*        X'00'   OPERATION SUCCESSFUL AND NO EXCEPTIONAL CONDITIONS   * 09730000
*        OCCURRED.                                                    * 09800000
*        X'FF'   1 - AN EXTENDED PRECISION INSTRUCTION WAS NOT        * 09870000
*                    ENCOUNTERED.                                     * 09940000
*                2 - AN INCORRECT FLOATING POINT REGISTER WAS         * 10010000
*                    SPECIFIED (SPECIFICATION).                       * 10080000
*                3 - A PROTECTION, ADDRESSING OR SPECIFICATION        * 10150000
*                    INTERRUPT OCCURRED IN FETCHING THE ARGUMENT      * 10220000
*                    OF AN MXD INSTRUCTION.                           * 10290000
*                4 - OVERFLOW, UNDERFLOW, FLOATING POINT DIVIDE OR    * 10360000
*                    SIGNIFICANCE OCCURRED IN SIMULATING.             * 10430000
*                5 - THIRD BYTE OF DXR NOT X'00' (SPECIFICATION)      * 10500000
*                                                                     * 10570000
* EXTERNAL ROUTINES - THE SIMULATOR KERNEL IEAXKALL                   * 10640000
*                                                                     * 10710000
* ATTRIBUTES - THIS MODULE IS REENTRANT.                              * 10780000
*                                                                     * 10850000
*********************************************************************** 10920000
         EJECT                                                          10990000
* REGISTER DEFINITIONS                                                  11060000
PARM     EQU   1                   PARAMETER REG                        11070000
R2       EQU   2                   UTILITY REG                          11080000
R3       EQU   3                   UTILITY REG                          11090000
R4       EQU   4                   UTILITY REG                          11100000
INST     EQU   5                   PTR TO INSTRUCTION                   11110000
PIEAD    EQU   6                   PTR TO PIE                           11120000
WRK      EQU   7                                                        11130000
BASE     EQU   8                   BASE REG                             11140000
LINK     EQU   9                   BRANCHING REG                        11150000
CODE1    EQU   15                  RETURN CODE REG                      11160000
         SPACE 3                                                        11760000
* MISCELLANEOUS CODES                                                   11830000
LRDRINST EQU   X'25'               EXTENDED OP CODES - LOAD LONG RNDED  11900000
MXDRINST EQU   X'27'                                   MULTIPLY LONG    11970000
LRERINST EQU   X'35'                                   LOAD SHORT RNDED 12040000
SXRINST  EQU   X'37'                                   SUBTRACT         12110000
MXDINST  EQU   X'67'                                   MULTIPLY LONG    12111000
DIVOP    EQU   X'2D'               HALF OF EXTENDED DIVIDE OPCODE       12120000
LOWBY    EQU   X'0F'               SETS OFF HIGH 4 BITS OF A BYTE       12180000
RESULT0  EQU   X'02'               SIMULATED MXD REGS: 0=ARG 2=RESULT   12250000
RESULT4  EQU   X'46'               SIMULATED MXD REGS: 4=ARG 6=RESULT   12320000
XOV      EQU   X'0C'               ERROR CODES - EXPONENT OVERFLOW      12460000
XUN      EQU   X'0D'                             EXPONENT UNDERFLOW     12530000
SIGNIF   EQU   X'0E'                             SIGNIFICANCE           12540000
DCK      EQU   X'0F'                             FLOATING POINT DIVIDE  12600000
ADSUB    EQU   X'F0'               SETS SWITCH TO INDICATE ADD OR SUB   12670000
R2OR6    EQU   X'0F'               SETS SWITCH IF REGS 2 OR 6 ALLOWED   12740000
BADOP    EQU   X'FF'               ERROR RETURN CODE                    12880000
ON       EQU   X'FF'               SETS SOME SWITCHES ON                12950000
         EJECT                                                          13020000
         USING XPALL,15                                                 13090000
         USING WRKAREA,WRK                                              13160000
         SPACE                                                          13230000
XPALL    B     PROLOG                                                   13300000
         DC    X'08'                                                    13370000
         DC    CL8'IEAXPALL'                                            13440000
PROLOG   STM   14,12,12(13)        SAVE REGS                            13510000
         BALR  BASE,0              SET UP ADDRESSABILITY                13580000
         USING *,BASE                                                   13650000
         L     WRK,8(PARM)                                              13720000
         ST    13,SAVESIM+4                                             13790000
         LA    R2,SAVESIM          SAVE AREA FOR KERNEL                 13860000
         ST    R2,8(13)            LINK SAVE AREAS                      13930000
         SPACE                                                          14000000
         MVI   72(WRK),X'00'                                            14070000
         MVC   73(10,WRK),72(WRK)  INITIALIZE WORK AREA                 14140000
         L     PIEAD,0(PARM)       PICK UP ADDRESS OF PIE               14210000
         SPACE                                                          14220000
* CALCULATE PTR TO INSTRUCTION CAUSING INTERRUPT                        14280000
         L     INST,8(PIEAD)                                            14350000
         LA    INST,0(INST)        NEXT INSTRUCTION ADDRESS             14420000
         SH    INST,FOUR           ILC ADJUSTMENT                       14490000
         TM    8(PIEAD),X'80'      ILC 2 ?                              14560000
         BZ    ADD2                YES - ADD 2 TO ADDRESS               14630000
         TM    8(PIEAD),X'C0'      ILC 6 ?                              14700000
         BM    EXTEST              NO - ILC IS 4                        14770000
         SH    INST,TWO            ILC 6 - SUBTRACT 2                   14840000
         B     EXTEST              GO TEST FOR EX                       14910000
ADD2     AH    INST,TWO            ILC 4                                14980000
         SPACE 3                                                        15120000
* THIS ROUTINE TESTS FOR AN EXECUTE INSTRUCTION. IF THE INTERRUPT WAS   15190000
* CAUSED BY AN EXECUTE, THE ADDRESS OF THE EXECUTED INSTRUCTION IS      15260000
* CALCULATED AND THE MASK IS SET.                                       15330000
         SPACE                                                          15400000
EXTEST   CLI   0(INST),X'44'       IS INSTRUCTION AN EXECUTE ?          15470000
         BNE   DIVCK               NO - CHECK FOR DIVIDE                15540000
         BAL   LINK,ADCALC         CALC ADDRESS OF INTERRUPT INST       15610000
         SR    R2,R2                                                    15680000
         IC    R2,1(INST)          PICK UP REG USED FOR EX              15750000
         SRL   R2,4                                                     15820000
         SLL   R2,2                                                     15890000
         LTR   R2,R2               IS EX REG 0 ?                        15940000
         BZ    LOADREG             YES - DO NOT SET MASK                15950000
         L     R2,0(R2,R4)         GET CONTENTS OF REG                  15960000
         STC   R2,BYTES                                                 16030000
         MVC   EXSV,1(R3)          SAVE ORIGINAL FIELD                  16170000
         OI    EXSW,ON             INDICATE EXECUTE INSTRUCTION         16180000
         OC    1(1,R3),BYTES       SET MASK IN INST TO BE EXECUTED      16240000
LOADREG  LR    INST,R3             PICK UP ADDRESS OF INST              16310000
         SPACE 2                                                        16380000
DIVCK    CLC   0(2,INST),DIV       EXTENDED DIVIDE ?                    16520000
         BNE   OPTST               NO - CHECK FOR OTHER EXT INSTS       16590000
         CLI   2(INST),X'00'       THIRD BYTE ZERO ?                    16660000
         BNE   SETSPEC             INDICATE SPECIFICATION ERROR         16730000
         MVI   RC+2,DIVOP          SET DIVIDE OPCODE                    16800000
         MVC   RC+3(1),3(INST)     SET REGISTER CODE                    16870000
         SR    R2,R2                                                    16940000
         IC    R2,3(INST)                                               17010000
         BAL   LINK,SPECTST2       CHECK FOR CORRECT REG SPEC           17080000
         MVC   BYTES(1),3(INST)                                         17150000
         B     REGTST2             CHECK CORRECT R2 SPEC                17220000
         SPACE 2                                                        17290000
* THIS ROUTINE TESTS FOR THE EXTENDED PRECISION INSTRUCTIONS.           17360000
         SPACE                                                          17430000
OPTST    CLI   0(INST),LRDRINST                                         17500000
         BL    ERRRET              NOT TO BE HANDLED                    17570000
         BE    LRDRRTN             HANDLE LRDR INSTRUCTION              17640000
         CLI   0(INST),MXDRINST                                         17710000
         BL    REGTST              HANDLE MXR INSTRUCTION               17780000
         BE    MXDRRTN             HANDLE MXDR INSTRUCTION              17850000
         CLI   0(INST),LRERINST                                         17920000
         BL    ERRRET              NOT TO BE HANDLED                    17990000
         BE    LRERRTN                                                  18060000
         CLI   0(INST),SXRINST                                          18130000
         BH    MXDTST              TEST FOR MXD INSTRUCTION             18200000
         OI    SWITCH,ADSUB        INDICATE ADD OR SUBTRACT             18270000
         B     REGTST              HANDLE ADD OR SUBTRACT               18340000
         EJECT                                                          18410000
MXDTST   CLI   0(INST),MXDINST                                          18480000
         BNE   ERRRET              NOT TO BE HANDLED                    18550000
         SPACE                                                          18620000
* THIS ROUTINE EXAMINES THE ADDRESS PORTION OF AN MXD INSTRUCTION. IF   18690000
* A SPECIFICATION, PROTECTION, OR ADDRESSING INTERRUPT OCCURS IN        18760000
* FETCHING THE ARGUMENT, THE PSW INDICATES THE CONDITION.               18830000
         SPACE                                                          18900000
         BAL   LINK,ADCALC         CALCULATE ARGUMENT ADDRESS           18970000
         BAL   LINK,SPECTST        TEST R1 FOR PROPER REG SPECIFICATION 19040000
         MVC   APSW(4),8(PIEAD)                                         19110000
         MVC   PIEREGS(20),12(PIEAD)                                    19180000
         LA    R4,MXDERR           SPIE EXIT FOR FETCHING ARGUMENT      19250000
         SPIE  (4),(4,5,6)         CATCH PROTECTION, ADDRESSNG AND SPEC 19320000
         LTR   R2,R2                                                    19390000
         MVI   RC+2,MXDRINST       INDICATE MXDR FOR SIMULATOR          19460000
         BZ    ZER                                                      19530000
         MVI   RC+3,RESULT4        INDICATE ARG AND RESULT REGS         19600000
         LD    6,0(R3)             PICK UP ARGUMENT                     19670000
         B     CANCEL                                                   19740000
ZER      MVI   RC+3,RESULT0        INDICATE ARG AND RESULT REGS         19810000
         LD    2,0(R3)             PICK UP ARGUMENT                     19880000
CANCEL   EQU   *                                                        19890000
         SPIE MF=(E,(1))           RESTORE PREVIOUS PICA                20020000
         TM    MXDSW,ON            ERROR ON LOAD ?                      20090000
         BZ    PROGMSK             NO - SET UP FOR KERNEL               20160000
         MVC   8(4,PIEAD),APSW                                          20230000
         MVC   12(20,PIEAD),PIEREGS                                     20300000
         B     ERRRET              RETURN WITH ERROR CODE               20370000
         SPACE 3                                                        20440000
* SPIE EXIT FOR ERROR IN FETCHING THE ARGUMENT OF MXD.                  20510000
MXDERR   OI    MXDSW,ON            INDICATE ERROR IN FETCHING THE ARG   20580000
         BR    14                  RETURN TO SUPERVISOR                 20650000
         SPACE 3                                                        20720000
* THESE ROUTINES INSURE PROPER REG SPECIFICATIONS.                      20790000
         SPACE                                                          20800000
LRERRTN  OI    SWITCH,R2OR6        INDICATE 0,2,4 OR 6 ALLOWED          20930000
MXDRRTN  BAL   LINK,SPECTST        CHECK R1                             21000000
         OI    SWITCH,R2OR6        INDICATE 0,2,4 OR 6 ALLOWED          21070000
         B     REGTST1             GO TEST R2                           21140000
LRDRRTN  OI    SWITCH,R2OR6        INDICATE 0,2,4 OR 6 ALLOWED          21210000
REGTST   BAL   LINK,SPECTST        TEST FOR CORRECT REG                 21280000
REGTST1  MVC   BYTES(1),1(INST)                                         21350000
REGTST2  NI    BYTES,LOWBY                                              21420000
         IC    R2,BYTES            PICK UP R2                           21490000
         BAL   LINK,SPEC2          TEST FOR CORRECT ARGUMENT REG        21560000
         EJECT                                                          21640000
* THIS ROUTINE SETS UP THE PARAMETER AREA FOR THE KERNEL: X'PM0SOPRA',  21650000
* WHERE PM IS THE PROGRAM MASK, S IS DXR SWITCH, OP IS OPCODE OR 2D,    21660000
* R IS REG 1, AND A IS REG 2.                                           21670000
         SPACE                                                          21680000
PROGMSK  IC    R2,8(PIEAD)         GET PROGRAM MASK FROM THE PSW        21700000
         SLL   R2,4                                                     21770000
         STC   R2,RC               SET PROGRAM MASK IN PARM FOR SIM     21840000
         LA    13,SAVESIM          SAVE AREA FOR SIMULATOR              21980000
         CLI   RC+2,X'00'          MXD OR DIVIDE ?                      22050000
         BNZ   QBR                 YES - BRANCH                         22120000
         MVC   RC+2(2),0(INST)     SET OP CODE                          22190000
QBR      LA    R2,RC               SET INSTRUCTION AND REG CODE         22330000
         ST    R2,LIST                  IN PARAMETER LIST               22400000
         LA    R2,SIMWRK           SET ADDRESS OF SIM WORKAREA          22470000
         ST    R2,LIST+4                IN PARAMETER LIST               22540000
         LA    R2,EXCEP            SET ADDRESS OF ERROR RETURN          22610000
         ST    R2,LIST+8                 IN PARAMETER LIST              22680000
         L     R2,12(PARM)         PICK UP DXR ADJUST SW                22890000
         TM    0(R2),X'FF'         SHOULD ADJUST BE DONE?               22900000
         BZ    TOSIM               YES BRANCH                           22980000
         MVI   RC+1,X'01'          INDICATE TO KERNEL NOT TO ADJUST     22990000
TOSIM    LA    PARM,LIST           ADDRESS OF PARAMETER LIST            23030000
         L     15,=V(IEAXKALL)                                          23100000
         BALR  14,15               BRANCH TO SIMULATOR                  23170000
         SPACE                                                          23240000
         LA    LINK,OUT            BRANCH POINT                         23241000
         SR    15,15               INDICATE GOOD RETURN CODE            23250000
SETCC    TM    SWITCH,ADSUB        ADD OR SUBTRACT ?                    23660000
         BCR   8,LINK              NO - RETURN                          23730000
         L     R2,RETCD            PICK UP RETURN CODE                  23800000
         SRL   R2,6                SET UP MASK                          24150000
         SLL   R2,4                    USE TO SET CC                    24220000
         STC   R2,CODE2                                                 24290000
         NI    8(PIEAD),X'CF'                                           24360000
         OC    8(1,PIEAD),CODE2    SET CONDITION CODE                   24430000
         BR    LINK                RETURN                               24440000
         SPACE                                                          24640000
* USING RETURN CODE FROM SIMULATOR, SET PSW APPROPRIATELY               24850000
EXCEP    CLI   RETCD+3,BADOP       DID KERNEL FIND OPCODE ERROR ?       24870000
         BE    ERRRET              GIVE ERROR RETURN CODE               24880000
         BAL   LINK,SETCC          SET CC IF ANY                        24881000
         NI    RETCD+3,X'3F'       ADJUST RETURN CODE                   24882000
         L     15,RETCD            PICK UP RETURN CODE                  24890000
         EX    0,SETINT(15)        ADJUST INTERRUPT CODE                24990000
ERRRET   LA    CODE1,255           SET X'FF' RETURN CODE                25130000
OUT      TM    EXSW,ON             WAS INST AN EXECUTE ?                25270000
         BZ    RETURN              NO - RETURN                          25340000
         MVC   1(1,INST),EXSV      RESTORE FIELD MODIFIED FOR EXECUTE   25410000
         SPACE                                                          25490000
RETURN   L     13,SAVESIM+4        RESTORE CALLER'S SAVE AREA POINTER   25500000
         L     14,12(13)           GET RETURN LOCATION                  25510000
         LM    0,12,20(13)         RESTORE REGISTERS                    25520000
         MVI   12(13),X'FF'        INDICATE RETURN                      25530000
         BR    14                  RETURN                               25540000
         SPACE 3                                                        25550000
SETINT   EQU   *-4                                                      25900000
         MVI   7(PIEAD),XOV                                             25970000
         MVI   7(PIEAD),XUN                                             26040000
         MVI   7(PIEAD),DCK                                             26110000
         MVI   7(PIEAD),DCK                                             26180000
         MVI   7(PIEAD),SIGNIF                                          26250000
         EJECT                                                          26320000
* THIS ROUTINE CALCULATES THE ADDRESS SPECIFIED AS AN ARGUMENT IN AN    26390000
* RX INSTRUCTION.                                                       26460000
         SPACE                                                          26530000
ADCALC   SR    R2,R2                                                    26600000
         MVC   BYTES(1),1(INST)                                         26670000
         NI    BYTES,LOWBY                                              26740000
         IC    R2,BYTES            INDEX REGISTER                       26810000
         L     R4,4(PARM)          PTR TO REGS AT INTERRUPT TIME        26880000
         LTR   R2,R2               REG 0 NOT INDEX REG                  26950000
         BZ    ADD                                                      27020000
         SLL   R2,2                                                     27090000
         L     R2,0(R2,R4)         CONTENTS OF INDEX REG                27160000
         LA    R2,0(R2)                                                 27230000
ADD      SR    R3,R3                                                    27300000
         IC    R3,2(INST)          BASE REGISTER                        27370000
         SRL   R3,4                                                     27440000
         LTR   R3,R3               REG 0 NOT BASE REG                   27510000
         BZ    ADD1                                                     27580000
         SLL   R3,2                                                     27650000
         L     R3,0(R3,R4)         CONTENTS OF BASE REG                 27720000
         LA    R3,0(R3)                                                 27790000
ADD1     AR    R3,R2               BASE, INDEX                          27860000
         MVC   BYTES(2),2(INST)    DISPLACEMENT                         27930000
         NI    BYTES,LOWBY                                              28000000
         AH    R3,BYTES            ADDRESS                              28070000
         BR    LINK                                                     28140000
         EJECT                                                          28210000
* THIS ROUTINE EXAMINES REGISTER FIELDS OF EXTENDED PRECISION           28280000
* INSTRUCTION. IF AN INCORRECT REGISTER IS SPECIFIED, THE PSW IN PIE    28350000
* WILL BE SET TO INDICATE SPECIFICATION.                                28420000
        SPACE                                                           28490000
SPECTST  SR    R2,R2                                                    28560000
         IC    R2,1(INST)          PICK UP REGISTERS TO BE EXAMINED     28630000
SPECTST2 SRA   R2,4                                                     28700000
SPEC2    LTR   R2,R2               IS REG 0 ?                           28770000
         BZ    BACK                YES - RETURN                         28840000
         CH    R2,FOUR             IS REG 4 ?                           28910000
         BE    BACK                YES - RETURN                         28980000
         TM    SWITCH,R2OR6        REG 2 OR REG 6 VALID?                29050000
         BZ    SETSPEC             NO - RETURN WITH ERROR CODE          29120000
         CH    R2,TWO              IS REG 2 ?                           29190000
         BE    BACK                YES - RETURN                         29260000
         CH    R2,SIX              IS REG 6 ?                           29330000
         BNE   SETSPEC             NO - RETURN WITH ERROR CODE          29400000