*%/*                                                                    00060002
         MACRO                                                          00070002
&NAME    ABEND &CC,&DUMP,&STEP,&USESYS,&DUMPOPT=                        00100002
.*000400,000800,001600-001700,001800-002600,003400-005400               00200002
.*005800-006000,006200,006800-007200,007600-008400,008800               00250002
         LCLA  &CTR                                                     00300002
         LCLB  &B(3)                                                    00350002
&NAME    DS    0H                                                       00400002
         AIF   ('&CC' EQ '').E1                                         00450002
&B(1)    SETB  ('&DUMP' EQ 'DUMP')                                      00500002
&B(2)    SETB  ('&STEP' EQ 'STEP')                                      00550002
&B(3)    SETB  ('&DUMPOPT' NE '')                                       00600002
         AIF   ('&USESYS' NE 'SYSTEM' AND '&USESYS' NE 'USER' AND '&USEC00610002
               SYS' NE '').E4                                           00620002
.TEST0   AIF   ('&DUMP' NE '' AND NOT &B(1)).E2                         00650002
.TEST    AIF   ('&STEP' NE '' AND NOT &B(2)).E3                         00700002
.SETFLGS ANOP                                                           00750002
&CTR     SETA  128*&B(1)+64*&B(2)+32*&B(3)                              00800002
         AIF   ('&CC'(1,1) EQ '(').CONTA                                00900002
         AIF   (T'&CC NE 'N').AA                                        00950002
         AIF   (&CC GT 4095).AA0                                        01000002
.CONTA   ANOP                                                           01050002
         IHBINNRA &CC             LOAD REG1 WITH COMPCODE               01100002
         AIF   (T'&CC EQ 'N' AND '&CC'(1,1) NE '(').CKSYS               01150002
.POSITIO ANOP                                                           01160002
         AIF   ('&USESYS' EQ '').FLAGS                                  01170002
         SLL   1,20(0)            SHIFT OFF > 12 BITS                   01200002
         AIF   ('&USESYS' NE 'SYSTEM').USER                             01260002
         SRL   1,8(0)             CODE IN SYSTEM POSITION               01300002
         AGO   .FLAGS                                                   01350002
.USER    SRL   1,20(0)            SHIFT TO USER POSITION                01360002
         AGO   .FLAGS                                                   01370002
.AA0     ANOP                                                           01380002
         AIF   ('&USESYS' EQ '').AA1                                    01390002
         MNOTE *,'CC EXCEEDS SPECIFIED LIMITS - LOW 12 BITS USED'       01390402
         AGO   .AA                                                      01392002
.AA1     MNOTE *,'CC EXCEEDS SPECIFIED LIMITS'                          01394002
.AA      CNOP  0,4                                                      01400002
         B     *+8                BRANCH AROUND CONSTANTS               01450002
         DC    AL4(&CC)                                                 01500002
         L     1,*-4              LOAD REG1 WITH COMPCODE               01550002
         AGO   .POSITIO                                                 01600002
.CKSYS   AIF   ('&USESYS' NE 'SYSTEM').FLAGS                            01650002
         SLL   1,12(0)            CODE IN SYSTEM POSITION               01700002
.FLAGS   AIF   (&CTR EQ 0).SVC                                          01750002
         LA    0,&CTR.(0,0)       PICK UP DUMP/STEP/DUMPOPTS     YM1995 01800002
         SLL   0,24(0)            SHIFT TO HIGH ORDER                   01850002
         OR    1,0                OR IN WITH COMPCODE                   01900002
.DUMPOPT AIF  (NOT &B(3)).SVC                                           01950002
         IHBINNRA ,&DUMPOPT       LOAD REG0                             02000002
.SVC     SVC   13                 LINK TO ABEND ROUTINE                 02050002
         MEXIT                                                          02100002
.E2      IHBERMAC  37,,&DUMP                                            02150002
         AGO   .TEST                                                    02200002
.E3      IHBERMAC  38,,&STEP                                            02250002
         AGO   .SETFLGS                                                 02300002
.E4      IHBERMAC  39,,&USESYS                                          02302002
         AGO   .TEST0                                                   02320002
.E1      IHBERMAC 28,303                                                02350002
         MEND                                                           02400002
**/                                                                     02450002
*  ABEND: /***********************************************************/ 02500002
*/*ABEND: PL/S VERSION OF ABEND MACRO                                */ 02550002
*/********************************************************************/ 02600002
* MACRO                                                                 02650002
*  KEYS(DUMP,                                                           02700002
*       STEP,                                                           02750002
*       USER,                                                           02800002
*       SYSTEM,                                                         02850002
*       DUMPOPTS);                                                      02900002
*        ANS('?'||MACLABEL||'ABENDP '||MACLIST||MACKEYS||';');          02950002
*%END;                                                                  03000002
