        MACRO                                                           00050040
&NAME    ACBVS &DDNAME=,&EXLST=0,&MACRF=,                      @ZA34940C00100040
               &JFCB=0,&BUFND=0,&BUFNI=0,&PASSWD=0,                    C00150040
               &BLKSIZE=0,&LRECL=0,&BUFSP=0,                           C00200040
               &CCTYPE=,&STRNO=1,&CATALOG=NO,                  @ZA07566C00250040
               &BSTRNO=0,&MAREA=0,&MLEN=0,&CRA=,                X04SVHSC00300040
               &AM=,&APPLID=0,&USERPTR=0,                      @ZA34940C00350040
               &PARMS=,&PARM2=,&PARM3=                         @ZA34940 00360040
.*                                                                      00370040
.*       CHANGE LEVEL = 1                                      @ZA37504 00380040
.*       DATE OF LAST CHANGE =  29 JAN   79 ( 79*029 )         @ZA37504 00386040
.*                                                                      00400040
.* FUNCTION-   THE FUNCTION OF THIS MACRO IS TO BUILD,         @ZA34940 00410040
.*             AT ASSEMBLY TIME, AN ACB (ACCESS-METHOD         @ZA34940 00420040
.*             CONTROL BLOCK) FOR A VSAM USER.                 @ZA34940 00430040
.*             ACBVS IS INVOKED BY MACRO ACB WHEN A USER       @ZA34940 00440040
.*             HAS ISSUED AN ACB MACRO WITH NO 'AM'            @ZA34940 00450040
.*             SPECIFIED, OR 'AM=VSAM' SPECIFIED.              @ZA34940 00460040
.*                                                             @ZA34940 00470040
.* CHANGE ACTIVITY                                             @ZA34940 00480040
.*      CBMM SPLIT SUPPORT                                     @ZA34940 00490040
.*                                                             @ZA34940 00500040
.* GLOBALS                                                      X04SVHS 00650040
         GBLC  &IDAMAC1,&IDAMAC2,&IDAMAC3 MACRF CODES           X04SVHS 00700040
         GBLC  &IDAIFL1                 CATALOG/CRA CODES       X04SVHS 00750040
         GBLA  &IDAENO                  NUMBER OF ELEMENTS     @ZA06420 00800040
.* LOCALS                                                       X04SVHS 00850040
         LCLA  &VTMEXT                  LENGTH OF VTAM EXT     X03004HS 00900040
         LCLA  &LEN                     SUBPARAMETER ACB LENGTH  X03004 00950040
         LCLA  &STYPE                   ACCESS METHOD ID        X04SVHS 01000040
         LCLB  &A,&M                    CCTYPE BITS                     01050040
.*                                                                      01100040
.*             INITIALIZE GLOBALS TO ZERO                               01150040
&IDAMAC1 SETC  '00000000'                                       X04SVHS 01200040
&IDAMAC2 SETC  '00000000'                                       X04SVHS 01250040
&IDAMAC3 SETC  '00000000'                                       X04SVHS 01300040
&IDAIFL1 SETC  '00000000'                                       X04SVHS 01350040
&IDAENO  SETA  0                                               @ZA06420 01400040
.*                                                                      01450040
         IDAVSACB MACRF=&MACRF,CATALOG=&CATALOG,CRA=&CRA,      @ZA34940*01500040
               AM=&AM,CALLER=ACB        SET VALUES FOR BIT     @ZA34940 01540040
.*                                      KEYWORDS IN GLOBALS    @ZA34940 01580040
.*           IDAVSACB IS CALLED TO PROCESS BIT KEYWORDS MACRF, @ZA34940 01620040
.*             CATALOG, AND CRA.  IT WILL VALIDITY CHECK OPTIONS        01700040
.*             SPECIFIED, MUTUALLY EXCLUSIVE CHECK WHERE APPLICABLE,    01750040
.*             AND SET GLOBALS WITH THE VALUES OF THE KEYWORDS.         01800040
.*                                                                      01850040
&LEN     SETA  76                       SET FOR COMMON LENGTH    X03004 01900040
         AIF   ('&AM' EQ '').SETLEN     IF AM IS NULL           X04SVHS 01950040
.*                                      DEFAULT LEN TO VSAM,    X04SVHS 02000040
.*                                      AND SUBTYPE TO 0        X04SVHS 02050040
.*                                                                      02100040
&STYPE   SETA  X'10'                    SET VSAM SUBTYPE        X04SVHS 02150040
         AIF   ('&AM' EQ 'VSAM').SETLEN IS IT VSAM              X04SVHS 02200040
&VTMEXT  SETA  12                       NO, SET VTAM EXT LEN   X03004HS 02250040
&STYPE   SETA  X'20'                    SET VTAM SUBTYPE        X04SVHS 02300040
         AIF   ('&AM' EQ 'VTAM').SETLEN IF VTAM SET VTAM LEN    X04SVHS 02350040
.*                                      AND SUBTYPE             X04SVHS 02400040
.*                                      ELSE ERROR              X04SVHS 02450040
&STYPE   SETA  0                        ZERO SUBTYPE            X04SVHS 02500040
&VTMEXT  SETA  0                        GENERATE NORMAL LEN ACB X04SVHS 02550040
         IDAVSERR 3,AM,&AM              ISSUE ERROR MSG        @ZA34940 02600040
.SETLEN  ANOP                                                   X04SVHS 02650040
&NAME    DS    0F                                                       02700040
         DC    X'A0' .                  ACB IDENTIFICATION              02750040
         DC    AL1(&STYPE)              ACB SUBTYPE             X04SVHS 02800040
.*             X'11' - X'1F' ARE RESERVED FOR VSAM              X04SVHS 02850040
.*             X'21' - X'2F' ARE RESERVED FOR VTAM              X04SVHS 02900040
         DC    AL2(&LEN+&VTMEXT) .      ACB LENGTH             X03004HS 02950040
         DC    A(0) .                   AMB LIST POINTER                03000040
         AIF   ('&AM' NE 'VTAM').SETIRR IF NOT VTAM ACBINRTN = ZERO     03050040
.*                                                             X03004HS 03100040
         DC    A(*+&LEN-8)  .           PTR TO VTAM EXTENSION  X03004HS 03150040
         AGO   .MACRF1                                         X03004HS 03200040
.SETIRR  ANOP                                                           03250040
         DC    A(0) .                   INTERFACE ROUTINE POINTER       03300040
.*       MACRF PROCESSING                                               03350040
.MACRF1  ANOP                                                   X04SVHS 03400040
         DC    B'&IDAMAC1'              MACRF(1)                X04SVHS 03450040
         DC    B'&IDAMAC2'              MACRF(2)                X04SVHS 03500040
         DC    AL1(&BSTRNO) .           NO OF CONCURRENT        X04SVHS 03550040
*                                       STRINGS FOR AIX PATH    X04SVHS 03600040
         DC    AL1(&STRNO) .            NUMBER OF STRINGS       X04SVHS 03650040
         DC    AL2(&BUFND) .            NUMBER OF DATA BUFFERS          03700040
         DC    AL2(&BUFNI) .            NUMBER OF INDEX BUFFERS         03750040
         DC    B'&IDAMAC3'              MACRF(3)                X04SVHS 03800040
         DC    B'00000000' .            MACRF(4)                X04SVHS 03850040
         DC    AL2(0) .                 JES BUFFER POOL/NUMBER  X04SVHS 03900040
*                                       OF JOURNAL BUFFERS              03950040
         DC    X'80' .                  RECFM=A                         04000040
         AIF   ('&CCTYPE' EQ '').CCSET                                  04050040
&A       SETB  ('&CCTYPE' EQ 'A')                                       04100040
&M       SETB  ('&CCTYPE' EQ 'M')                                       04150040
         AIF   (&A OR &M).CCSET                                         04200040
         IDAVSERR 5,CCTYPE,&CCTYPE                             @ZA34940 04250040
.CCSET   DC    B'00000&A&M.0' .         CONTROL CHARACTER TYPE          04300040
         DC    X'0008' .                DSORG=ACB                       04350040
         AIF   ('&MAREA' EQ '0').GENM0 IF &MAREA = 0 BYPASS     X04SVHS 04400040
.*                                      CHKING FOR AM=VSAM      X04SVHS 04450040
         AIF   ('&AM' EQ '' OR '&AM' EQ 'VSAM').GENMA           X04SVHS 04500040
.*                                      IF NOT VSAM ACB, ERROR  X04SVHS 04550040
         IDAVSERR 24,MAREA              ISSUE ERR MSG          @ZA34940 04600040
         AGO   .GENM0                                           X04SVHS 04650040
.GENMA   ANOP                                                   X04SVHS 04700040
         DC    A(&MAREA)  .             MESSAGE AREA            X04SVHS 04750040
         AGO   .GPSWD                                           X04SVHS 04800040
.GENM0   ANOP                                                   X04SVHS 04850040
         DC    A(0)                                             X04SVHS 04900040
.GPSWD   ANOP                                                   X04SVHS 04950040
         DC    A(&PASSWD) .             PASSWORD POINTER                05000040
         DC    A(&EXLST) .              EXIT LIST POINTER               05050040
         AIF   ('&DDNAME' NE '' AND '&AM' NE 'VTAM').DDNMCHK   @ZA31869 05100040
         AIF   ('&DDNAME' EQ '').VTAM   NO DDNAME SPECIFIED?     X03004 05150040
         IDAVSERR 24,DDNAME             NOT A VTAM KEYWORD     @ZA34940 05200040
         AGO   .ACBB2                                            X03004 05250040
.VTAM    ANOP                                                    X03004 05300040
         AIF   ('&AM' NE 'VTAM').NONAME TRY LABEL IF NO VTAM     X03004 05350040
         DC    X'FF' .                  INDICATE VTAM            X03004 05400040
         DC    XL7'00' .                PAD WITH ZEROS           X03004 05450040
         AGO   .ACBB3                                            X03004 05500040
.NONAME  ANOP                                                    X03004 05550040
         AIF   ('&NAME' EQ '').BLANK    IS THERE A LABEL                05600040
         DC    CL8'&NAME' .             DDNAME                          05650040
         AGO   .ACBB3                                                   05700040
.BLANK   DC    CL8' ' .                 DDNAME                          05750040
         AGO   .ACBB3                                                   05800040
.DDNMCHK ANOP                                                  @ZA31869 05850040
         AIF   (K'&DDNAME GT 8).DDNMERR                        @ZA37504 05900040
         AIF   (('&DDNAME'(1,1) LT 'A' OR '&DDNAME'(1,1) GT 'Z') AND   C05920040
               ('&DDNAME'(1,1) NE '#' AND '&DDNAME'(1,1) NE '@' AND    C05940040
               '&DDNAME'(1,1) NE '$')).DDNMERR CHECK FOR VALID @ZA37504 05960040
         AGO   .ACBB2                          DDNAME          @ZA31869 06000040
.DDNMERR IDAVSERR 3,DDNAME,&DDNAME      INVALID DDNAME         @ZA34940 06050040
.ACBB2   DC    CL8'&DDNAME' .           DDNAME                          06100040
.ACBB3   DC    X'02' .                  OFLAGS                          06150040
         DC    AL1(0) .                 ERFLAGS                         06200040
         DC    B'&IDAIFL1'              INFLGS(1)               X04SVHS 06250040
         DC    B'00000000'              INFLGS(2)               X04SVHS 06300040
         DC    A(&JFCB) .               OPENJ JFCB POINTER              06350040
         DC    A(&BUFSP)                BUFFER SPACE                    06400040
         AIF   ('&BLKSIZE' EQ '0').CHKMLN                       X04SVHS 06450040
         AIF   ('&MLEN' EQ '0').BLKSET                          X04SVHS 06500040
.*             IF BLKSIZE AND MLEN ARE BOTH SPECIFIED           X04SVHS 06550040
.*             IT IS AN ERROR                                   X04SVHS 06600040
         IDAVSERR 19,BLKSIZE,MLEN                              @ZA34940 06650040
.BLKSET  ANOP                                                   X04SVHS 06700040
         DC    AL2(&BLKSIZE) .          BLOCK SIZE                      06750040
         AGO   .LRECLST                                         X04SVHS 06800040
.CHKMLN  ANOP                                                   X04SVHS 06850040
         AIF   ('&MLEN' EQ '0').BLKSET                          X04SVHS 06900040
.*                                      IF MLEN IS SPEC,        X04SVHS 06950040
.*                                      CHECK FOR VSAM ACB      X04SVHS 07000040
         AIF   ('&AM' NE '' AND '&AM' NE 'VSAM').MLERR          X04SVHS 07050040
.*                                      IF NOT VSAM ACB, ERROR  X04SVHS 07100040
         DC    AL2(&MLEN)               MESSAGE LENGTH          X04SVHS 07150040
         AGO   .LRECLST                                         X04SVHS 07200040
.MLERR   IDAVSERR 24,MLEN               ISSUE ERR MSG          @ZA34940 07250040
         AGO   .BLKSET                                          X04SVHS 07300040
.LRECLST ANOP                                                   X04SVHS 07350040
         DC    AL2(&LRECL) .            RECORD SIZE                     07400040
         AIF   ('&USERPTR' EQ '0').UPTR  NO USER PTR PROVIDED           07450040
         DC    A(&USERPTR)              ADDRESS OF USER WORKAREA        07500040
         AGO   .CBMWP                                                   07550040
.UPTR    DC    A(0) .                   USER WORKAREA POINTER           07600040
.CBMWP   DC    A(0)                     CONTROL BLOCK MANIPULATION      07650040
*                                       WORKAREA POINTER                07700040
         AIF   ('&AM' EQ 'VTAM').SETAPP  WAS VTAM SPECIFIED      X03004 07750040
         AIF   ('&APPLID' EQ '0').NONAPP  WAS APPLID SPECIFIED   X03004 07800040
         IDAVSERR 18,APPLID                                    @ZA34940 07850040
.NONAPP  ANOP                           IGNORE APPLID            X03004 07900040
         DC    A(0) .                   PTR TO APPLICATION NAME  X03004 07950040
         MEXIT                          END THE MACRO            X03004 08000040
.SETAPP  ANOP                           VTAM SPECIFIED           X03004 08050040
         DC    A(&APPLID) .             PTR TO APPLICATION NAME  X03004 08100040
         LA    15,32                    SET RETURN CODE(VTAM)    X03004 08150040
         BR    14                       RETURN TO CALLER(VTAM)   X03004 08200040
         DC    H'0'                     RESERVED                 X03004 08250040
         DC    F'0'                     RESERVED                 X03004 08300040
.OUT     MEND                                                           08350040
