         MACRO                                                          00020000
&NAME    ASMTRTAB   &TABLE                                              00040000
.*00011298001400,003600-004000,004800-005200,006200,042400,046200, 000B 00046014
.*00011298050000,053800,057600,061400,065200,069000,072800         000B 00052014
.*CC271800001400,003800,004000,005000,005200,006200,046010         000G 00054017
.*CC271800046140-046190,046200,050000,053800,057600,061400         000G 00056017
.*CC271800065200,069000,072800,076410,076600                       000G 00058017
.********************************************************************** 00058500
.*       AZ11040  (05/18/76)                                   @ZA11040 00059000
.********************************************************************** 00059500
.*                                                                      00060000
         LCLA       &LPCTL         LOOP CONTROL, SETB INDEX             00080000
         LCLA       &NDX           SYSLIST INDEX                        00100000
.*                                                                      00120000
         LCLB  &TABS(30)      TABLE INCLUSION SWITCHES                  00128018
.*                                                                      00136018
         LCLA  &NR                 NUMBER OF RCV CODES                  00144018
&NR      SETA  17                                                       00152018
.*                                                                      00160000
         AIF        (N'&SYSLIST NE 0).CKNAME                            00180000
         MNOTE 12,'***  IHB004  REQUIRED OPERAND(S) NOT SPECIFIED'      00200000
         MEXIT                                                          00220000
.CKNAME  AIF        (T'&NAME EQ 'O').SETSYM                             00240000
         MNOTE      0,'LABEL=&NAME, IGNORED'                            00260000
.SETSYM  ANOP                                                           00280000
&NDX     SETA       1                                                   00300000
.LOOP    ANOP                                                           00320000
&LPCTL   SETA       &LPCTL+1                                            00340000
         AIF   ('&SYSLIST(&NDX)' EQ '*** RC30 RC50 RF50 RC60 RC40 RF40 -00350018
               RASA RSCI RCT1 RCT2 RC80 RCTW RCT3 RC41 RF41 RB40 RU40 '-00360018
               (5*&LPCTL,4)).TABLECK                                    00370018
         AIF   (&LPCTL LT &NR).LOOP                                     00380018
&LPCTL   SETA  0   RESET LOOP CONTROL COUNTER                           00420000
.LOOPA   ANOP                                                           00440000
&LPCTL   SETA  &LPCTL+1   STEP CODE NAME POINTER                        00460000
         AIF   ('&SYSLIST(&NDX)' EQ '*** SD30 SD50 SD60 SD40 SASA SSCI -00470018
               SCT1 SCT2 SD80 SCTW SCT3 SD41 SB40                     '-00480018
               (5*&LPCTL,4)).ADJUST                                     00490018
         AIF   (&LPCTL LT 13).LOOPA                                     00500018
         MNOTE 12,'***  IHB002  INVALID TABLENAME OPERAND SPECIFIED-&SYX00540000
               SLIST(&NDX)'                                             00560000
         AGO        .STEPNDX                                            00580000
.ADJUST  ANOP                                                           00600000
&LPCTL   SETA  &LPCTL+&NR ADJUST SETB INDEX                             00620018
.TABLECK AIF        (&TABS(&LPCTL) NE 1).TBLSET                         00640000
         MNOTE *,'***  IHB075  TABLENAME OPERAND REPEATED-&SYSLIST(&NDXX00650014
               )'                                                       00680000
.TBLSET  ANOP                                                           00700000
&TABS(&LPCTL) SETB 1                                                    00720018
.STEPNDX AIF   (&NDX EQ N'&SYSLIST).CODEGEN CHECK END OF PARAMETER LST  00740000
&NDX     SETA       &NDX+1                                              00760000
&LPCTL   SETA  0                                                        00780000
         AGO        .LOOP                                               00800000
.CODEGEN AIF   (&TABS(1) NE 1).CKRC50                                   00820000
IECTRC30 EQU   *                                                        00840000
*                 0 1 2 3 4 5 6 7 8 9 A B C D E F                       00860000
         DC    X'3F40F13FF23F3FF3F43F3FF53FF6F73F'  0                   00880000
         DC    X'F83F3FF93F3F7B3F3F3F3F3F3F3F3F37'  1                   00900000
         DC    X'F03F3F613FE2E33F3FE4E53FE63F3FE7'  2                   00920000
         DC    X'3FE8E93F3F3F3F6B3F3F3F3F3F263F3F'  3                   00940000
         DC    X'603F3FD13FD2D33F3FD4D53FD63F3FD7'  4                   00960000
         DC    X'3FD8D93F3F3F3F5B3F3F3F3F3F3F3F3F'  5                   00980000
         DC    X'3F50C13FC23F3FC3C43F3FC53FC6C73F'  6                   01000000
         DC    X'C83F3FC93F3F4B3F3F3F3F3F3F3F3F07'  7                   01020000
         DC    X'3F3F3F3F3F3F3F3F3F3F3F3F3F3F3F3F'  8                   01040000
         DC    X'3F3F3F3F3F3F3F3F3F3F3F3F3F3F3F3F'  9                   01060000
         DC    X'3F3F3F3F3F3F3F3F3F3F3F3F3F3F3F3F'  A                   01080000
         DC    X'3F3F3F3F3F3F3F3F3F3F3F3F3F3F3F3F'  B                   01100000
         DC    X'3F3F3F3F3F3F3F3F3F3F3F3F3F3F3F3F'  C                   01120000
         DC    X'3F3F3F3F3F3F3F3F3F3F3F3F3F3F3F3F'  D                   01140000
         DC    X'3F3F3F3F3F3F3F3F3F3F3F3F3F3F3F3F'  E                   01160000
         DC    X'3F3F3F3F3F3F3F3F3F3F3F3F3F3F3F3F'  F                   01180000
.CKRC50  AIF   (&TABS(2) NE 1).CKRF50                                   01200000
IECTRC50 EQU   *                                                        01220000
*                 0 1 2 3 4 5 6 7 8 9 A B C D E F                       01240000
         DC    X'3F40F13FF23F3FF3F43F3FF53FF6F73F'  0                   01260000
         DC    X'F83F3FF93FF07B3F3F34353F363F3F37'  1                   01280000
         DC    X'7C3F3F613FA2A33F3FA4A53FA63F3FA7'  2                   01300000
         DC    X'3FA8A93FE03F3F6B243F3F253F26273F'  3                   01320000
         DC    X'603F3F913F92933F3F94953F963F3F97'  4                   01340000
         DC    X'3F98993FD03F3F5B143F3F153F16173F'  5                   01360000
         DC    X'3F50813F823F3F83843F3F853F86873F'  6                   01380000
         DC    X'883F3F893FC04B3F3F04053F063F3F07'  7                   01400000
         DC    X'3F407E3F4C3F3F5E7A3F3F6C3F7D6E3F'  8                   01420000
         DC    X'5C3F3F4D3F5D7F3F3F34353F363F3F3F'  9                   01440000
         DC    X'4A3F3F6F3FE2E33F3FE4E53FE63F3FE7'  A                   01460000
         DC    X'3FE8E93F3F3F3F4F243F3F253F26273F'  B                   01480000
         DC    X'6D3F3FD13FD2D33F3FD4D53FD63F3FD7'  C                   01500000
         DC    X'3FD8D93F3F3F3F5A143F3F153F16173F'  D                   01520000
         DC    X'3F4EC13FC23F3FC3C43F3FC53FC6C73F'  E                   01540000
         DC    X'C83F3FC93F3F5F3F3F04053F063F3F07'  F                   01560000
.CKRF50  AIF   (&TABS(3) NE 1).CKRC60                                   01580000
IECTRF50 EQU   *                                                        01600000
*                 0 1 2 3 4 5 6 7 8 9 A B C D E F                       01620000
         DC    X'3F40F13FF23F3FF3F43F3FF53FF6F73F'  0                   01640000
         DC    X'F83F3FF93FF07B3F3F34353F363F3F37'  1                   01660000
         DC    X'7C3F3F613FE2E33F3FE4E53FE63F3FE7'  2                   01680000
         DC    X'3FE8E93FE03F3F6B243F3F253F26273F'  3                   01700000
         DC    X'603F3FD13FD2D33F3FD4D53FD63F3FD7'  4                   01720000
         DC    X'3FD8D93FD03F3F5B143F3F153F16173F'  5                   01740000
         DC    X'3F50C13FC23F3FC3C43F3FC53FC6C73F'  6                   01760000
         DC    X'C83F3FC93FC04B3F3F04053F063F3F07'  7                   01780000
         DC    X'3F407E3F4C3F3F5E7A3F3F6C3F7D6E3F'  8                   01800000
         DC    X'5C3F3F4D3F5D7F3F3F34353F363F3F3F'  9                   01820000
         DC    X'4A3F3F6F3FE2E33F3FE4E53FE63F3FE7'  A                   01840000
         DC    X'3FE8E93F3F3F3F4F243F3F253F26273F'  B                   01860000
         DC    X'6D3F3FD13FD2D33F3FD4D53FD63F3FD7'  C                   01880000
         DC    X'3FD8D93F3F3F3F5A143F3F153F16173F'  D                   01900000
         DC    X'3F4EC13FC23F3FC3C43F3FC53FC6C73F'  E                   01920000
         DC    X'C83F3FC93F3F5F3F3F04053F063F3F07'  F                   01940000
.CKRC60  AIF   (&TABS(4) NE 1).CKRC40                                   01960000
IECTRC60 EQU   *                                                        01980000
*                 0 1 2 3 4 5 6 7 8 9 A B C D E F                       02000000
         DC    X'3F40F13FF23F3FF3F43F3FF53FF6F73F'  0                   02020000
         DC    X'F83F3FF93FF07B3F3F3F3F3F3F3F3F3F'  1                   02040000
         DC    X'3F3F3F613F3F3F3F3F3F3F3F3F3F3F3F'  2                   02060000
         DC    X'3F3F3F3F3F3F3F3F3F3F3F3F3F263F3F'  3                   02080000
         DC    X'3F3F3FD13FD23F3F3F3F3F3F3F3F3F3F'  4                   02100000
         DC    X'3F3F3F3F3F3F3F3F3F3F3F3F3F3F3F3F'  5                   02120000
         DC    X'3F3FC13FC23F3F3F3F3F3FC53FC63F3F'  6                   02140000
         DC    X'3F3F3FC93F3F3F3F3F3F3F3F3F3F3F07'  7                   02160000
         DC    X'3F3F3F3F3F3F3F3F3F3F3F3F3F3F3F3F'  8                   02180000
         DC    X'3F3F3F3F3F3F3F3F3F3F3F3F3F3F3F3F'  9                   02200000
         DC    X'3F3F3F3F3F3F3F3F3F3F3F3F3F3F3F3F'  A                   02220000
         DC    X'3F3F3F3F3F3F3F3F3F3F3F3F3F3F3F3F'  B                   02240000
         DC    X'3F3F3F3F3F3F3F3F3F3F3F3F3F3F3F3F'  C                   02260000
         DC    X'3F3F3F3F3F3F3F3F3F3F3F3F3F3F3F3F'  D                   02280000
         DC    X'3F3F3F3F3F3F3F3F3F3F3F3F3F3F3F3F'  E                   02300000
         DC    X'3F3F3F3F3F3F3F3F3F3F3F3F3F3F3F3F'  F                   02320000
.CKRC40  AIF   (&TABS(5) NE 1).CKRF40                                   02340000
IECTRC40 EQU   *                                                        02360000
*                 0 1 2 3 4 5 6 7 8 9 A B C D E F                       02380000
         DC    X'3F40F13FF23F3FF3F43F3FF53FF6F73F'  0                   02400000
         DC    X'F83F3FF93FF07B3F3F3F353F363F3F37'  1                   02420000
         DC    X'7C3F3F613FA2A33F3FA4A53FA63F3FA7'  2                   02440000
         DC    X'3FA8A93F3F3F3F6B3F3F3F253F263F3F' 3                    02460000
         DC    X'603F3F913F92933F3F94953F963F3F97'  4                   02480000
         DC    X'3F98993F3F3F3F5B3F3F3F153F16173F'  5                   02500000
         DC    X'3F50813F823F3F83843F3F853F86873F'  6                   02520000
         DC    X'883F3F893F3F4B3F3F3F053F063F3F07'  7                   02540000
         DC    X'3F407E3F4C3F3F5E7A3F3F6C3F7D6E3F'  8                   02560000
         DC    X'5C3F3F4D3F5D7F3F3F3F353F363F3F3F'  9                   02580000
         DC    X'4A3F3F6F3FE2E33F3FE4E53FE63F3FE7'  A                   02600000
         DC    X'3FE8E93F3F3F3F4F3F3F3F253F263F3F'  B                   02620000
         DC    X'6D3F3FD13FD2D33F3FD4D53FD63F3FD7'  C                   02640000
         DC    X'3FD8D93F3F3F3F5A3F3F3F153F16173F'  D                   02660000
         DC    X'3F4EC13FC23F3FC3C43F3FC53FC6C73F'  E                   02680000
         DC    X'C83F3FC93F3F5F3F3F3F053F063F3F07'  F                   02700000
.CKRF40  AIF   (&TABS(6) NE 1).CKRASA                                   02720000
IECTRF40 EQU   *                                                        02740000
*                 0 1 2 3 4 5 6 7 8 9 A B C D E F                       02760000
         DC    X'3F40F13FF23F3FF3F43F3FF53FF6F73F'  0                   02780000
         DC    X'F83F3FF93FF07B3F3F3F353F363F3F37'  1                   02800000
         DC    X'7C3F3F613FE2E33F3FE4E53FE63F3FE7'  2                   02820000
         DC    X'3FE8E93F3F3F3F6B3F3F3F253F263F3F'  3                   02840000
         DC    X'603F3FD13FD2D33F3FD4D53FD63F3FD7'  4                   02860000
         DC    X'3FD8D93F3F3F3F5B3F3F3F153F16173F'  5                   02880000
         DC    X'3F50C13FC23F3FC3C43F3FC53FC6C73F'  6                   02900000
         DC    X'C83F3FC93F3F4B3F3F3F053F063F3F07'  7                   02920000
         DC    X'3F407E3F4C3F3F5E7A3F3F6C3F7D6E3F'  8                   02940000
         DC    X'5C3F3F4D3F5D7F3F3F3F353F363F3F3F'  9                   02960000
         DC    X'4A3F3F6F3FE2E33F3FE4E53FE63F3FE7'  A                   02980000
         DC    X'3FE8E93F3F3F3F4F3F3F3F253F263F3F'  B                   03000000
         DC    X'6D3F3FD13FD2D33F3FD4D53FD63F3FD7'  C                   03020000
         DC    X'3FD8D93F3F3F3F5A3F3F3F153F16173F'  D                   03040000
         DC    X'3F4EC13FC23F3FC3C43F3FC53FC6C73F'  E                   03060000
         DC    X'C83F3FC93F3F5F3F3F3F053F063F3F07'  F                   03080000
.CKRASA  AIF   (&TABS(7) NE 1).CKRSCI                                   03100000
IECTRASA EQU   *                                                        03120014
*                 0 1 2 3 4 5 6 7 8 9 A B C D E F                       03140000
         DC    X'00010203372D2E2F1605250B0C0D0E0F' 0                    03160000
         DC    X'101112133C3D322618193F271C1D1E1F' 1                    03180000
         DC    X'404F7F7B5B6C507D4D5D5C4E6B604B61' 2             A29569 03200019
         DC    X'F0F1F2F3F4F5F6F7F8F97A5E4C7E6E6F' 3                    03220000
         DC    X'7CC1C2C3C4C5C6C7C8C9D1D2D3D4D5D6' 4                    03240000
         DC    X'D7D8D9E2E3E4E5E6E7E8E94AE05A5F6D' 5             A29569 03260019
         DC    X'79818283848586878889919293949596' 6             A29569 03280019
         DC    X'979899A2A3A4A5A6A7A8A9C06AD0A107' 7             A29569 03300019
         DC    X'3F3F3F3F3F3F3F3F3F3F3F3F3F3F3F3F' 8                    03320000
         DC    X'3F3F3F3F3F3F3F3F3F3F3F3F3F3F3F3F' 9                    03340000
         DC    X'3F3F3F3F3F3F3F3F3F3F3F3F3F3F3F3F' A                    03360000
         DC    X'3F3F3F3F3F3F3F3F3F3F3F3F3F3F3F3F' B                    03380000
         DC    X'3F3F3F3F3F3F3F3F3F3F3F3F3F3F3F3F' C                    03400000
         DC    X'3F3F3F3F3F3F3F3F3F3F3F3F3F3F3F3F' D                    03420000
         DC    X'3F3F3F3F3F3F3F3F3F3F3F3F3F3F3F3F' E                    03440000
         DC    X'3F3F3F3F3F3F3F3F3F3F3F3F3F3F3F3F' F                    03460000
.CKRSCI  AIF   (&TABS(8) NE 1).CKRCT1                                   03480000
IECTRSCI EQU   *                                                        03500000
*                 0 1 2 3 4 5 6 7 8 9 A B C D E F                       03520000
         DC    X'3F3F0203373F2E3F3F3F153F3F3F3F3F'  0                   03540000
         DC    X'3F3F3F3F3F3D3F3F183F3F3F3F3F3F3F'  1                   03560000
         DC    X'3F3F3F3F3F3F3F3F3F3F3F3F3F3F3F3F'  2                   03580000
         DC    X'3F3F3F3F3F3F3F3F3F3F3F3F3F3F3F3F'  3                   03600000
         DC    X'406A1A7B5B6C507D4D5D5C4E6B604B61'  4                   03620000
         DC    X'F0F1F2F3F4F5F6F7F8F97A5E4C7E6E6F'  5                   03640000
         DC    X'3F3F3F3F3F3F3F3F3F3F3F3F3F3F3F3F'  6                   03660000
         DC    X'3F3F3F3F3F3F3F3F3F3F3F3F3F3F3F3F'  7                   03680000
         DC    X'3F3F3F3F3F3F3F3F3F3F3F3F3F3F3F3F'  8                   03700000
         DC    X'3F3F3F3F3F3F3F3F3F3F3F3F3F3F3F3F'  9                   03720000
         DC    X'3FC1C2C3C4C5C6C7C8C9D1D2D3D4D5D6'  A                   03740000
         DC    X'D7D8D9E2E3E4E5E6E7E8E93F3F0A3F6D'  B            A28624 03760019
         DC    X'3F3F3F3F3F3F3F3F3F3F3F3F3F3F3F3F'  C            A28624 03780019
         DC    X'3F3F3F3F3F3F3F3F3F3F3F3F3F3F3F3F'  D                   03800000
         DC    X'7C3F3F3F3F3F3F3F3F3F3F3F3F3F3F3F'  E                   03820000
         DC    X'3F3F3F3F3F3F3F3F3F3F3F3F5F3F4F3F'  F                   03840000
.CKRCT1  AIF   (&TABS(9) NE 1).CKRCT2                                   03860000
IECTRCT1 EQU   *                                                        03880000
*                 0 1 2 3 4 5 6 7 8 9 A B C D E F                       03900000
         DC    X'3FE326D640C8D5D415D3D9C7C9D7C3E5'  0                   03920000
         DC    X'C5E9C4C2E2E8C6E7C1E6D136E4D8D206'  1                   03940000
         DC    X'3FF526F9403F6B4B155DF450F8F07A5E'  2                   03960000
         DC    X'F37F5B6F7DF65A6160F22F36F7F14D06'  3                   03980000
         DC    X'3F3F3F3F3F3F3F3F3F3F3F3F3F3F3F3F'  4                   04000000
         DC    X'3F3F3F3F3F3F3F3F3F3F3F3F3F3F3F3F'  5                   04020000
         DC    X'3F3F3F3F3F3F3F3F3F3F3F3F3F3F3F3F'  6                   04040000
         DC    X'3F3F3F3F3F3F3F3F3F3F3F3F3F3F3F3F'  7                   04060000
         DC    X'3F3F3F3F3F3F3F3F3F3F3F3F3F3F3F3F'  8                   04080000
         DC    X'3F3F3F3F3F3F3F3F3F3F3F3F3F3F3F3F'  9                   04100000
         DC    X'3F3F3F3F3F3F3F3F3F3F3F3F3F3F3F3F'  A                   04120000
         DC    X'3F3F3F3F3F3F3F3F3F3F3F3F3F3F3F3F'  B                   04140000
         DC    X'3F3F3F3F3F3F3F3F3F3F3F3F3F3F3F3F'  C                   04160000
         DC    X'3F3F3F3F3F3F3F3F3F3F3F3F3F3F3F3F'  D                   04180000
         DC    X'3F3F3F3F3F3F3F3F3F3F3F3F3F3F3F3F'  E                   04200000
         DC    X'3F3F3F3F3F3F3F3F3F3F3F3F3F3F3F3F'  F                   04220000
.CKRCT2  AIF   (&TABS(10) NE 1).CKRC80                                  04240014
IECTRCT2 EQU   *                                                        04260000
*                 0 1 2 3 4 5 6 7 8 9 A B C D E F                       04280000
         DC    X'3F3F3F7C3F403F3F3F3FD7D7F0F03F3F'  0                   04300000
         DC    X'3F3FC8C84D4D3F3F3F3F3FE73FF83F3F'  1                   04320000
         DC    X'3F37C4C45B5B3F3F04043FE33FF43F3F'  2                   04340000
         DC    X'0C0C3FD33F6B3F3F3F3FE1E14C4C3F3F'  3                   04360000
         DC    X'3F3FC2C27F7F3F3F343F3FD93FF23F3F'  4                   04380000
         DC    X'15153FD13F5C3F3F3F3FE9E97A7A3F3F'  5                   04400000
         DC    X'3F3F3FC63F503F3F3F3FE5E5F6F63F3F'  6                   04420000
         DC    X'3F0ED5D54B4B3F3F3F3F3F4F3F6E3F3F'  7                   04440000
         DC    X'3F3FC1C15A5A3F3F11113FD83FF13F3F'  8                   04460000
         DC    X'05053FC93F5D3F3F3F3FE8E8F9F93F3F'  9                   04480000
         DC    X'2D2D3FC53F6C3F3F3F3FE4E4F5F53F3F'  A                   04500000
         DC    X'3F26D4D460603F3F3F3F3F493F7E3F3F'  B                   04520000
         DC    X'3F3F3FC33F7B3F3F3F3CE2E2F3F33F3F'  C                   04540000
         DC    X'3F0BD2D24E4E3F3F3F3F3F793F5E3F3F'  D                   04560000
         DC    X'3F2FC7C77D7D3F3F3F3F3FE63FF73F3F'  E                   04580000
         DC    X'0F0F3FD63F613F3F3F3F6D6D6F6F3F07'  F                   04600000
.CKRC80  AIF   (NOT &TABS(11)).CKRCTW                              000G 04601017
IECTRC80 EQU   *    TRANSCODE TO EBCDIC                                 04602014
*                 0 1 2 3 4 5 6 7 8 9 A B C D E F                       04603014
         DC    X'01C1C2C3C4C5C6C7C8C9024B4C2F3F26'  0                   04604015
         DC    X'50D1D2D3D4D5D6D7D8D9405B5C1F3710'  1                   04605014
         DC    X'6061E2E3E4E5E6E7E8E9276B6C2D0305'  2                   04606014
         DC    X'F0F1F2F3F4F5F6F7F8F9327B7C3D1907'  3                   04607014
         DC    X'3F3F3F3F3F3F3F3F3F3F3F3F3F3F3F3F'  4                   04608014
         DC    X'3F3F3F3F3F3F3F3F3F3F3F3F3F3F3F3F'  5                   04609014
         DC    X'3F3F3F3F3F3F3F3F3F3F3F3F3F3F3F3F'  6                   04610014
         DC    X'3F3F3F3F3F3F3F3F3F3F3F3F3F3F3F3F'  7                   04611014
         DC    X'3F3F3F3F3F3F3F3F3F3F3F3F3F3F3F3F'  8                   04612014
         DC    X'3F3F3F3F3F3F3F3F3F3F3F3F3F3F3F3F'  9                   04613014
         DC    X'3F3F3F3F3F3F3F3F3F3F3F3F3F3F3F3F'  A                   04613117
         DC    X'3F3F3F3F3F3F3F3F3F3F3F3F3F3F3F3F'  B                   04613217
         DC    X'3F3F3F3F3F3F3F3F3F3F3F3F3F3F3F3F'  C                   04613317
         DC    X'3F3F3F3F3F3F3F3F3F3F3F3F3F3F3F3F'  D                   04613417
         DC    X'3F3F3F3F3F3F3F3F3F3F3F3F3F3F3F3F'  E                   04613517
         DC    X'3F3F3F3F3F3F3F3F3F3F3F3F3F3F3F3F'  F                   04613617
.CKRCTW  AIF   (NOT &TABS(12)).CKRCT3                              000G 04613717
IECTRCTW EQU   *  ITA2 CODE TO EBCDIC                              000G 04613817
         SPACE 1                                                   000G 04613917
*                 0 1 2 3 4 5 6 7 8 9 A B C D E F                  000G 04614017
         DC    X'3FE315D640C8D5D425D3D9C7C9D7C3E5' 0               000G 04614117
         DC    X'C5E9C4C2E2E8C6E7C1E6D136E4D8D206' 1               000G 04614217
         DC    X'3FF515F9403F6B4B255DF43FF8F07A7E' 2               000G 04614317
         DC    X'F34E266F7DF63F6160F22A36F7F14D06' 3               000G 04614417
         DC    X'3F3F3F3F3F3F3F3F3F3F3F3F3F3F3F3F' 4               000G 04614517
         DC    X'3F3F3F3F3F3F3F3F3F3F3F3F3F3F3F3F' 5               000G 04614617
         DC    X'3F3F3F3F3F3F3F3F3F3F3F3F3F3F3F3F' 6               000G 04614717
         DC    X'3F3F3F3F3F3F3F3F3F3F3F3F3F3F3F3F' 7               000G 04614817
         DC    X'3F3F3F3F3F3F3F3F3F3F3F3F3F3F3F3F' 8               000G 04614917
         DC    X'3F3F3F3F3F3F3F3F3F3F3F3F3F3F3F3F' 9               000G 04615017
         DC    X'3F3F3F3F3F3F3F3F3F3F3F3F3F3F3F3F' A               000G 04615117
         DC    X'3F3F3F3F3F3F3F3F3F3F3F3F3F3F3F3F' B               000G 04615217
         DC    X'3F3F3F3F3F3F3F3F3F3F3F3F3F3F3F3F' C               000G 04615317
         DC    X'3F3F3F3F3F3F3F3F3F3F3F3F3F3F3F3F' D               000G 04615417
         DC    X'3F3F3F3F3F3F3F3F3F3F3F3F3F3F3F3F' E               000G 04615517
         DC    X'3F3F3F3F3F3F3F3F3F3F3F3F3F3F3F3F' F               000G 04615617
         SPACE 2                                                   000G 04615717
.CKRCT3  AIF   (NOT &TABS(13)).CKRC41                                   04615818
IECTRCT3 EQU   *  ZSC3 CODE TO EBCDIC                              000G 04615917
         SPACE 1                                                   000G 04616017
*                 0 1 2 3 4 5 6 7 8 9 A B C D E F                  000G 04616117
         DC    X'3FE315D640C8D5D425D3D9C7C9D7C3E5' 0               000G 04616217
         DC    X'C5E9C4C2E2E8C6E7C1E6D136E4D8D206' 1               000G 04616317
         DC    X'3F4B157A406F6BF7255D61F02AF9F87E' 2               000G 04616417
         DC    X'603F26F67DF5F43F4EF3F236F13F4D06' 3               000G 04616517
         DC    X'3F3F3F3F3F3F3F3F3F3F3F3F3F3F3F3F' 4               000G 04616617
         DC    X'3F3F3F3F3F3F3F3F3F3F3F3F3F3F3F3F' 5               000G 04616717
         DC    X'3F3F3F3F3F3F3F3F3F3F3F3F3F3F3F3F' 6               000G 04616817
         DC    X'3F3F3F3F3F3F3F3F3F3F3F3F3F3F3F3F' 7               000G 04616917
         DC    X'3F3F3F3F3F3F3F3F3F3F3F3F3F3F3F3F' 8               000G 04617017
         DC    X'3F3F3F3F3F3F3F3F3F3F3F3F3F3F3F3F' 9               000G 04617117
         DC    X'3F3F3F3F3F3F3F3F3F3F3F3F3F3F3F3F' A               000G 04617217
         DC    X'3F3F3F3F3F3F3F3F3F3F3F3F3F3F3F3F' B               000G 04617317
         DC    X'3F3F3F3F3F3F3F3F3F3F3F3F3F3F3F3F' C               000G 04617417
         DC    X'3F3F3F3F3F3F3F3F3F3F3F3F3F3F3F3F' D               000G 04617517
         DC    X'3F3F3F3F3F3F3F3F3F3F3F3F3F3F3F3F' E               000G 04617617
         DC    X'3F3F3F3F3F3F3F3F3F3F3F3F3F3F3F3F' F               000G 04617717
         SPACE 2                                                   000G 04617817
.CKRC41  AIF   (NOT &TABS(14)).CKRF41                                   04618018
IECTRC41 EQU   *                                                        04618218
*                 0 1 2 3 4 5 6 7 8 9 A B C D E F                       04618418
         DC    X'3F40F13FF23F3FF3F53F3FF73FF6F83F'  0                   04618618
         DC    X'F43F3FF03FA9F93F3F34353F363F3F37'  1                   04618818
         DC    X'A33F3FA73F95A43F3F85843F923F3F83'  2                   04619018
         DC    X'3F93883F3F3F3F82243F3F253F263F3F'  3                   04619218
         DC    X'5A3F3F943F4BA53F3F7D993F893F3F81'  4                   04619418
         DC    X'3F96A23F3F3F3FA6143F3F153F16173F'  5                   04619618
         DC    X'3F91873F7E3F3F86973F3F5E3F986B3F'  6                   04619818
         DC    X'613F3FA83F3F603F3F04053F063F3F07'  7                   04620018
         DC    X'3F403F3F7C3F3F7B6C3F3F503F4A5C3F'  8                   04620218
         DC    X'5B3F3F5D3FE94D3F3F3F3F3F363F3F37'  9                   04620418
         DC    X'E33F3FE73FD5E43F3FC5C43FD23F3FC3'  A                   04620618
         DC    X'3FD3C83F3F3F3FC23F3F3F253F3F3F3F'  B                   04620818
         DC    X'3F3F3FD43F4BE53F3F7FD93FC93F3FC1'  C                   04621018
         DC    X'3FD6E23F3F3F3FE63F3F3F153F163F3F'  D                   04621218
         DC    X'3FD1C73F4E3F3FC6D73F3F7A3FD86B3F'  E                   04621418
         DC    X'6F3F3FE83F3F6D3F3F3F053F063F3F3F'  F                   04621618
          SPACE 2                                                       04621818
.CKRF41  AIF   (NOT &TABS(15)).CKRB40                                   04622018
IECTRF41 EQU   *                                                        04622218
*                 0 1 2 3 4 5 6 7 8 9 A B C D E F                       04622418
         DC    X'3F40F13FF23F3FF3F53F3FF73FF6F83F'  0                   04622618
         DC    X'F43F3FF03FE9F93F3F34353F363F3F37'  1                   04622818
         DC    X'E33F3FE73FD5E43F3FC5C43FD23F3FC3'  2                   04623018
         DC    X'3FD3C83F3F3F3FC2243F3F253F263F3F'  3                   04623218
         DC    X'5A3F3FD43F4BE53F3F7DD93FC93F3FC1'  4                   04623418
         DC    X'3FD6E23F3F3F3FE6143F3F153F16173F'  5                   04623618
         DC    X'3FD1C73F7E3F3FC6D73F3F5E3FD86B3F'  6                   04623818
         DC    X'613F3FE83F3F603F3F04053F063F3F07'  7                   04624018
         DC    X'3F403F3F7C3F3F7B6C3F3F503F4A5C3F'  8                   04624218
         DC    X'5B3F3F5D3FE94D3F3F3F3F3F363F3F37'  9                   04624418
         DC    X'E33F3FE73FD5E43F3FC5C43FD23F3FC3'  A                   04624618
         DC    X'3FD3C83F3F3F3FC23F3F3F253F3F3F3F'  B                   04624818
         DC    X'3F3F3FD43F4BE53F3F7FD93FC93F3FC1'  C                   04625018
         DC    X'3FD6E23F3F3F3FE63F3F3F153F163F3F'  D                   04625218
         DC    X'3FD1C73F4E3F3FC6D73F3F7A3FD86B3F'  E                   04625418
         DC    X'6F3F3FE83F3F6D3F3F3F053F063F3F3F'  F                   04625618
          SPACE 2                                                       04625818
.CKRB40  AIF   (NOT &TABS(16)).CKRU40                                   04626018
IECTRB40 EQU   *                                                        04626218
*                 0 1 2 3 4 5 6 7 8 9 A B C D E F                       04626418
         DC    X'3F40F13FF23F3FF3F43F3FF53FF6F73F'  0                   04626618
         DC    X'F83F3FF93FF07B3F3F3F353F363F3F37'  1                   04626818
         DC    X'7C3F3F613FA2A33F3FA4A53FA63F3FA7'  2                   04627018
         DC    X'3FA8A93F3F3F3F6B3F3F3F253F263F3F'  3                   04627218
         DC    X'603F3F913F92933F3F94953F963F3F97'  4                   04627418
         DC    X'3F98993F3F3F3F5B3F3F3F153F16173F'  5                   04627618
         DC    X'3F50813F823F3F83843F3F853F86873F'  6                   04627818
         DC    X'883F3F893F3F4B3F3F3F053F063F3F07'  7                   04628018
         DC    X'3F407E3F4C3F3F5E7A3F3F6C3F7D7F3F'  8                   04628218
         DC    X'5C3F3F4D3F5D9E3F3F3F353F363F3F3F'  9                   04628419
         DC    X'4A3F3F6F3FE2E33F3FE4E53FE63F3FE7'  A                   04628618
         DC    X'3FE8E93F3F3F3F6B3F3F3F253F263F3F'  B                   04628818
         DC    X'6D3F3FD13FD2D33F3FD4D53FD63F3FD7'  C                   04629018
         DC    X'3FD8D93F3F3F3F5A3F3F3F153F16173F'  D                   04629218
         DC    X'3F4EC13FC23F3FC3C43F3FC53FC6C73F'  E                   04629418
         DC    X'C83F3FC93F3F4B3F3F3F053F063F3F07'  F                   04629618
          SPACE 2                                                       04629818
.CKRU40  AIF   (NOT &TABS(17)).CKSD30                                   04630018