*%/*                                                                    00052002
* /* MACCOMP Y-1 SC1CL/PZD81                                         */ 00054002
* /* MACSTAT Y-1 72271/015032                                        */ 00060002
* /*                                                                    00070002
         MACRO                                                          00100002
&NAME    ATTACH &EP=,&EPLOC=,&DE=,&DCB=,&PARAM=,&VL=,&ECB=,        I270X00200002
               &GSPV=,&KEY=PROP,&GSPL=,&SHSPL=,&ETXR=,&LPMOD=,     I270X00300002
               &DPMOD=,&MF=I,&SF=I,&SHSPV=,&SM=PROB,&SZERO=YES,    I270X00400002
               &JSTCB=NO,&SVAREA=YES,&ROLL=(YES,NO),&HIARCHY=,     I270X00500002
               &JSCB=,&GIVEJPQ=NO,&TASKLIB=,&TSLOGON=NO,          20021X00600002
               &STAI=,&PURGE=,&ASYNCH=,                          Y02752X00700002
               &ESTAI=,&TERM=NO,&NSHSPL=,&NSHSPV=,&RSAPF=NO,   @Z40RP9BX00750003
               &RELATED=,                                              X00760002
               &LSQA=0,&DISP=YES,&TID=0,&TQE=,&FPREGSA=          X02050 00800002
         GBLB  &IHBSWA,&IHBSWB                                          00900002
         GBLC  &IHBNO                                                   01000002
         LCLA  &A,&E,&F,&G,&L,&K,&X,&NUMB                               01100002
         LCLA  &NUMB1,&NUMB2,&NUMB3,&NUMB4                       Y02752 01120002
         LCLB  &SWSTAI,&SWESTAI                                  Y02752 01140002
         LCLC  &STAITYP,&STXADDR,&STPADDR                        Y02752 01160002
         LCLC  &H,&CHAR,&PARA,&FUDGE,&GNAME                             01200002
* /* MACDATE Y-1 72271                                               */ 01202002
* /*                                                                    01204002
&SWSTAI  SETB  ('&STAI(1)' NE '' )   SWITCH VALUE 1 IF STAI      Y02752 01206002
&SWESTAI SETB  ('&ESTAI(1)' NE '' )  SWITCH VALUE 1 IF ESTAI     Y02752 01212002
         AIF   (&SWSTAI AND &SWESTAI).ERSTAI                     Y02752 01218002
         AIF   (NOT &SWESTAI).STTYP1                             Y02752 01224002
         AIF   (N'&ESTAI GT 2).ERROR                             Y02752 01230002
&STXADDR SETC  '&ESTAI(1)'        EXIT RTN ADDR                  Y02752 01236002
&STPADDR SETC  '&ESTAI(2)'        PARM LIST FOR EXIT RTN         Y02752 01242002
&STAITYP SETC  'ESTAI'                                           Y02752 01248002
         AGO   .STTYP2                                           Y02752 01254002
.STTYP1  AIF   (NOT &SWSTAI).STTYP2                              Y02752 01260002
         AIF   (N'&STAI GT 2).ERROR                              Y02752 01266002
&STXADDR SETC  '&STAI(1)'         EXIT RTN ADDR                  Y02752 01272002
&STPADDR SETC  '&STAI(2)'         PARM LIST FOR EXIT RTN         Y02752 01278002
&STAITYP SETC  'STAI'                                            Y02752 01284002
.STTYP2  ANOP                                                    Y02752 01290002
&IHBNO   SETC  '306'                                                    02000002
 AIF ('&HIARCHY' NE '' AND '&HIARCHY' NE '0'                           *02100002
               AND '&HIARCHY' NE '1').ERRHID                       LCS1 02200002
         AIF   ('&MF' EQ 'L' OR('&SF' EQ 'L' AND '&MF(1)' EQ 'E')).E1   02300002
         AIF   ('&SF' EQ 'L' AND '&PARAM' NE '').ERROR2                 02400002
         AIF   ('&EP' NE '' AND '&EPLOC' NE '').ERROR4                  02500002
         AIF   ('&EP' NE '' AND '&DE' NE '').ERROR4                     02600002
         AIF   ('&DE' NE '' AND '&EPLOC' NE '').ERROR4                  02700002
         AIF   ('&LPMOD' EQ '').CONTAAA                                 02800002
         AIF   ('&LPMOD'(1,1) EQ '-').ERROR7                            02900002
.CONTAAA ANOP                                                           03000002
         AIF   ('&DISP' NE 'YES' AND '&DISP' NE 'NO').ERDISP            03100002
         AIF   ('&LSQA' NE '0' AND (&SWSTAI OR &SWESTAI)).E2     Y02752 03200002
         AIF   ('&LSQA' NE '0' AND '&PURGE' NE '' ).E3           Y02752 03300002
         AIF   ('&LSQA' NE '0' AND '&ASYNCH' NE '' ).E4          Y02752 03400002
         AIF   ('&LSQA' NE '0' AND ('&SZERO' NE 'NO')).E5               03500002
         AIF   ('&GIVEJPQ' NE 'NO' AND '&LSQA' NE '0').E6               03600002
         AIF   ('&LSQA' NE '0' AND '&GSPV' NE '').E7                    03700002
         AIF   ('&LSQA' NE '0' AND '&GSPL' NE '').E8                    03800002
         AIF   ('&LSQA' NE '0' AND '&SHSPV' NE '').E9                   03900002
         AIF   ('&LSQA' NE '0' AND '&SHSPL' NE '').E10                  04000002
         AIF   ('&TQE' NE 'YES' AND '&TQE' NE 'NO' AND '&TQE' NE '').ERX04100002
               TQE                                               X02050 04200002
         AIF   ('&FPREGSA' NE 'YES' AND '&FPREGSA' NE 'NO' AND '&FPREGSX04300002
               A' NE '').ERFP                                    X02050 04400002
         AIF   ('&NSHSPL' NE '' AND '&NSHSPV' NE '').ERNSHSP     Y02752 04401002
         AIF   ('&TERM' NE 'YES' AND '&TERM' NE 'NO').ERTERM     Y02752 04402002
.* HERE INITIALIZE VARIABLES &NUMB,&NUMB1,&NUMB2,&NUMB3,&NUMB4   Y02752 04403002
.* THESE MUST NOT BE ALTERED ONCE SET.                           Y02752 04404002
.* BYTE AT OFFSET DECIMAL 27 IS DEFINED BY &NUMB                 Y02752 04405002
         AIF   ('&DISP' EQ 'YES').NUMBX1                         Y02752 04406002
&NUMB    SETA  (&NUMB+128)        DISP=NO FLAG SET TO 1          Y02752 04407002
.NUMBX1  ANOP                                                    Y02752 04408002
         AIF   ('&JSCB' EQ '').NUMBX2                            Y02752 04409002
&NUMB    SETA  (&NUMB+64)         JSCB ADDRESS SPECIFIED FLAG    Y02752 04410002
.NUMBX2  ANOP                                                    Y02752 04411002
         AIF   ('&GIVEJPQ' EQ 'NO').NUMBX3                       Y02752 04412002
&NUMB    SETA  (&NUMB+32)         GIVEJPQ=YES FLAG SET TO 1      Y02752 04413002
.NUMBX3  ANOP                                                    Y02752 04414002
         AIF   ('&KEY' EQ 'PROP').NUMBX4                         Y02752 04415002
&NUMB    SETA  (&NUMB+16)         KEY=ZERO FLAG ON               Y02752 04416002
.NUMBX4  ANOP                                                    Y02752 04417002
         AIF   ('&SZERO' EQ 'YES').NUMBX5                        Y02752 04418002
&NUMB    SETA  (&NUMB+8)          SZERO=NO FLAG SET TO 1         Y02752 04419002
.NUMBX5  ANOP                                                    Y02752 04420002
         AIF   ('&SVAREA' EQ 'YES').NUMBX6                       Y02752 04421002
&NUMB    SETA  (&NUMB+4)          SVAREA=NO FLAG SET TO 1        Y02752 04422002
.NUMBX6  ANOP                                                    Y02752 04423002
         AIF   ('&JSTCB' NE 'YES').NUMBX7                        Y02752 04424002
&NUMB    SETA  (&NUMB+2)          JSTCB=YES FLAG SET TO 1        Y02752 04425002
.NUMBX7  ANOP                                                    Y02752 04426002
         AIF   ('&SM' NE 'SUPV').NUMBX8                          Y02752 04427002
&NUMB    SETA  (&NUMB+1)          SM=SUPV FLAG ON                Y02752 04428002
.NUMBX8  ANOP                     BYTE IS COMPLETE               Y02752 04429002
.* BYTE AT OFFSET DECIMAL 8 IS DEFINED BY &NUMB1                 Y02752 04430002
&NUMB1   SETA  8                  OS/VS2 REL 2 EXTNDED PARM LIST Y02752 04431002
         AIF   ('&TSLOGON' NE 'YES').NUMB1X1                     Y02752 04432002
&NUMB1   SETA  (&NUMB1+4)         TSLOGON=YES FLAG ON            Y02752 04433002
.NUMB1X1 ANOP                                                    Y02752 04434002
         AIF   ('&TASKLIB' EQ '').NUMB1X2                        Y02752 04435002
&NUMB1   SETA  (&NUMB1+2)         TASKLIB ADDRESS SPECIFIED FLAG Y02752 04436002
.NUMB1X2 ANOP                                                    Y02752 04437002
         AIF   (NOT (&SWSTAI OR &SWESTAI) ).NUMB1X3              Y02752 04438002
&NUMB1   SETA  (&NUMB1+1)         FLAG FOR STAI OR ESTAI         Y02752 04439002
.NUMB1X3 ANOP                     BYTE IS COMPLETE               Y02752 04440002
.* BYTE AT OFFSET DECIMAL 20 IS DEFINED BY &NUMB2                Y02752 04441002
         AIF   ('&TQE' NE 'NO').NUMB2X1                          Y02752 04442002
&NUMB2   SETA  (&NUMB2+128)       BIT0=1 FOR TQE=NO, OS/VS1 ONLY Y02752 04443002
         AGO   .NUMB2X3                                          Y02752 04444002
.NUMB2X1 ANOP                                                    Y02752 04445002
         AIF   ('&TQE' NE 'YES').NUMB2X3                         Y02752 04446002
&NUMB4   SETA  128                FOR TQE BIT OFF                Y02752 04447002
.NUMB2X3 ANOP                                                    Y02752 04448002
         AIF   ('&FPREGSA' NE 'NO').NUMB2X2                      Y02752 04449002
&NUMB2   SETA  (&NUMB2+64)        BIT1=1, FPREGSA=NO,OS/VS1 ONLY Y02752 04450002
         AGO   .NUMB2X4                                          Y02752 04451002
.NUMB2X2 ANOP                                                    Y02752 04452002
         AIF   ('&FPREGSA' NE 'YES').NUMB2X4                     Y02752 04453002
&NUMB4   SETA  (&NUMB4+64)        FOR FPREGSA BIT OFF            Y02752 04454002
.NUMB2X4 ANOP                                                    Y02752 04455002
&NUMB2   SETA  (&NUMB2+32)        BIT2=1 FOR OS/VS2 REL 1 LIST   Y02752 04456002
&NUMB4   SETA  (255-&NUMB4)       FOR RESETTING TQE,FPREGSA BITS Y02752 04457002
.* BYTE AT OFFSET DECIMAL 44 IS DEFINED BY &NUMB3                Y02752 04458002
         AIF   (NOT (&SWSTAI OR &SWESTAI)  ).NUMB3X1             Y02752 04459002
.* PURGE BITS (BITS 6 AND 7) ARE 00, CORRECT FOR PURGE=QUIESCE   Y02752 04460002
         AIF   ('&PURGE' EQ '').NOPRGE                           Y02752 04461002
         AIF   ('&PURGE' EQ 'QUIESCE').PRGEOK                    Y02752 04462002
&NUMB3   SETA  1                  SET TO PURGE=HALT FLAGS        Y02752 04463002
         AIF   ('&PURGE' EQ 'HALT').PRGEOK                       Y02752 04464002
&NUMB3   SETA  2                  SET TO PURGE=NONE FLAGS        Y02752 04465002
         AIF   ('&PURGE' EQ 'NONE').PRGEOK                       Y02752 04466002
         AGO   .ERROZ             INVALED PURGE OPERAND          Y02752 04467002
.NOPRGE  ANOP                     &NUMB3 IS SET TO QUIESCE       Y02752 04468002
         AIF   (&SWSTAI).PRGEOK   CORRECT DEFAULT FOR STAI       Y02752 04469002
&NUMB3   SETA  2                  SET TO NONE, DEFAULT FOR ESTAI Y02752 04470002
.PRGEOK  ANOP                     PURGE BITS ARE SET CORRECTLY   Y02752 04471002
         AIF   ('&ASYNCH' EQ '').NOASYNC                         Y02752 04472002
         AIF   ('&ASYNCH' EQ 'NO').ASYNCOK                       Y02752 04473002
&NUMB3   SETA  (&NUMB3+4)         SET ASYNCH=YES FLAG            Y02752 04474002
         AIF   ('&ASYNCH' EQ 'YES').ASYNCOK                      Y02752 04475002
         AGO   .ERROZ             INVALID ASYNCH OPERAND         Y02752 04476002
.NOASYNC ANOP                     CHECK DEFAULTS                 Y02752 04477002
         AIF   (&SWSTAI).ASYNCOK  ASYNCH=NO IS STAI DEFAULT      Y02752 04478002
&NUMB3   SETA  (&NUMB3+4)         ASYNCH=YES IS ESTAI DEFAULT    Y02752 04479002
.ASYNCOK ANOP                     ASYNCH BIT IS SET CORRECTLY    Y02752 04480002
         AIF   (&SWSTAI).NUMB3X1  TERM AND ESTAI FLAGS NOT SET   Y02752 04481002
&NUMB3   SETA  (&NUMB3+8)         BIT4=1 FOR ESTAI               Y02752 04482002
         AIF   ('&TERM' EQ 'NO').NUMB3X1                         Y02752 04483002
&NUMB3   SETA  (&NUMB3+16)        BIT3=1 FOR TERM=YES            Y02752 04484002
.NUMB3X1 ANOP                     BYTE IS COMPLETE               Y02752 04485002
&GNAME   SETC  'IHB'.'&SYSNDX'                                          04500002
&IHBSWA  SETB  ('&VL' EQ '1')                                           04600002
&IHBSWB  SETB  ('&SF' EQ '(E,(15))')                                    04700002
         AIF   ('&NAME' EQ '' OR '&SF' EQ 'L').CONTAA                   04800002
&NAME    DS    0H                                                       04900002
.CONTAA  AIF   ('&PARAM' EQ '' AND '&MF(1)' NE 'E').CONTA               05000002
         IHBOPLST ,&PARAM,MF=&MF                                        05100002
.CONTA   AIF   ('&SF' EQ 'I').IROUT                                     05200002
         AIF   ('&SF' EQ 'L').LROUT                                     05300002
         AIF   (N'&SF NE 2).ERROR3                                      05400002
         AIF   ('&SF(1)' NE 'E').ERROR3                                 05500002
         AIF   ('&SF'(4,1) EQ '(').ISAREG                               05600002
         LA    15,&SF(2)                         LOAD LIST ADDR INTO 15 05700002
         AGO   .CONTB                                                   05800002
.E1      IHBERMAC 35,&IHBNO,&MF,,,0                              Y02752 05900002
         MEXIT                                                          06000002
.ERROR2  IHBERMAC 71,&IHBNO,&PARAM                                      06100002
         MEXIT                                                          06200002
.ERROR3  IHBERMAC 41,&IHBNO,&SF,,,0                              Y02752 06300002
         MEXIT                                                          06400002
.ERROR4  IHBERMAC 88,&IHBNO                                             06500002
         MEXIT                                                          06600002
.ERROR5  IHBERMAC 72,&IHBNO                                             06700002
         MEXIT                                                          06800002
.ERROR6  IHBERMAC 31,&IHBNO                                             06900002
         MEXIT                                                          07000002
.ERROR7  IHBERMAC 240,,LPMOD                                            07100002
         MEXIT                                                          07200002
.ERRHID IHBERMAC 195                                                    07300002
         MEXIT                                                          07400002
.ISAREG  AIF   ('&SF(2)' EQ '(15)').CONTB                               07500002
&A       SETA  K'&SF-6                                                  07600002
&H       SETC  '&SF'(5,&A)                                              07700002
         LR    15,&H                             LOAD LIST ADDR INTO 15 07800002
.CONTB   ANOP                                                           07900002
.* E FORM MUST ALLOW SETTING OF ALL FIELDS, SO THAT A LIST FORM  Y02752 07920002
.* OF ALL ZEROS IS ACCEPTABLE. EXTENDED PARM LIST BITS AND       Y02752 07940002
.* LENGTH FIELD MUST BE SET.                                     Y02752 07960002
         AIF   ('&EP' EQ '').CONTC                                      08000002
         LA    14,28(15,0)                       PICK UP EP ADDRESS     08100002
         ST    14,0(15,0)                        INSERT EP ADDR IN LIST 08200002
         MVC   28(8,15),*+10                     MOVE EP SYMB INTO LIST 08300002
         B     *+12                              BRANCH AROUND EP SYMB. 08400002
         DC    CL8'&EP'                          EP SYMBOL              08500002
         AGO   .CONTE                                                   08600002
.CONTC   AIF   ('&EPLOC' EQ '').CONTD                                   08700002
         AIF   ('&EPLOC'(1,1) EQ '(').ISAREGA                           08800002
         LA    14,&EPLOC                         PICK UP EPLOC ADDRESS  08900002
         ST    14,0(15,0)                        INSERT EPLOC INTO LIST 09000002
         AGO   .CONTE                                                   09100002
.ISAREGA ST    &EPLOC(1),0(15,0)                 INSERT EPLOC INTO LIST 09200002
         AGO   .CONTE                                                   09300002
.CONTD   AIF   ('&DE' EQ '').CONTE                                      09400002
         AIF   ('&DE'(1,1) EQ '(').ISAREGB                              09500002
         LA    14,&DE                            PICK UP DE ADDRESS     09600002
         ST    14,0(15,0)                        INSERT DE INTO LIST    09700002
         MVI   0(15),X'80'                       SET BIT INDICATING DE  09800002
         AGO   .CONTE                                                   09900002
.ISAREGB ST    &DE(1),0(15,0)                    INSERT DE INTO LIST    10000002
         MVI   0(15),X'80'                       SET BIT INDICATING DE  10100002
.CONTE   AIF   ('&DCB' EQ '').CONHID                                    10200002
         AIF   ('&DCB'(1,1) EQ '(').ISAREGC                             10300002
         LA    14,&DCB             PICK UP DCB ADDRESS                  10400002
         STCM  14,7,5(15)          STORE DCB INTO LIST                  10500002
         AGO   .CONHID                                                  10600002
.ISAREGC STCM  &DCB(1),7,5(15)     STORE INTO LIST                      10700002
.* BITS 6 AND 7 OF BYTE 4 PREVIOUSLY DEFINED FOR HIARCHY PARM    Y02752 10800002
.CONHID  ANOP                                                    Y02752 11100002
.CONTF   AIF   ('&ECB' EQ '').CONTG                                     11400002
         AIF   ('&ECB'(1,1) EQ '(').ISAREGD                             11500002
         LA    14,&ECB                           PICK UP ECB ADDRESS    11600002
         STCM  14,7,9(15)                        INSERT ECB INTO LIST   11700002
         AGO   .CONTG                                                   11800002
.ISAREGD STCM  &ECB(1),7,9(15)                 INSERT ECB INTO LIST     11900002
.CONTG   ANOP                                                    Y02752 11930002
         OI    8(15),&NUMB1       SET FLAG BYTE                  Y02752 11960002
         AIF   ('&GSPV' EQ '').CONTH                                    12000002
         AIF   ('&GSPV'(1,1) EQ '(').ISAREGE                            12100002
         LA    14,&GSPV.(0,0)                    PICK UP GSPV VALUE     12200002
         ST    14,12(15,0)                       INSERT GSPV INTO LIST  12300002
         AGO   .CONTI                                                   12400002
.ISAREGE ST    &GSPV(1),12(15,0)                 INSERT GSPV INTO LIST  12500002
         AGO   .CONTI                                                   12600002
.CONTH   AIF   ('&GSPL' EQ '').CONTI                                    12700002
         AIF   ('&GSPL'(1,1) EQ '(').ISAREGF                            12800002
         LA    14,&GSPL                          PICK UP GSPL ADDRESS   12900002
         ST    14,12(15,0)                       INSERT GSPL INTO LIST  13000002
         MVI   12(15),X'01'                      SET LIST BIT ON        13100002
         AGO   .CONTI                                                   13200002
.ISAREGF ST    &GSPL(1),12(15,0)                 INSERT GSPL INTO LIST  13300002
         MVI   12(15),X'01'                      SET LIST BIT ON        13400002
.CONTI   AIF   ('&SHSPV' EQ '').CONTK                                   13500002
         AIF   ('&SHSPV'(1,1) EQ '(').ISAREGG                           13600002
         LA    14,&SHSPV.(0,0)                   PICK UP SHSPV VALUE    13700002
         ST    14,16(15,0)                       INSERT SHSPV INTO LIST 13800002
         AGO   .CONTL                                                   13900002
.ISAREGG ST    &SHSPV(1),16(15,0)                INSERT SHSPV INTO LIST 14000002
         AGO   .CONTL                                                   14100002
.CONTK   AIF   ('&SHSPL' EQ '').CONTL                                   14200002
         AIF   ('&SHSPL'(1,1) EQ '(').ISAREGH                           14300002
         LA    14,&SHSPL                         PICK UP SHSPL ADDRESS  14400002
         ST    14,16(15,0)                       INSERT SHSPL INTO LIST 14500002
         MVI   16(15),X'01'                      SET LIST BIT ON        14600002
         AGO   .CONTL                                                   14700002
.ISAREGH ST    &SHSPL(1),16(15,0)                INSERT SHSPL INTO LIST 14800002
         MVI   16(15),X'01'                      SET LIST BIT ON        14900002
.CONTL   AIF   ('&ETXR' EQ '').CONTN                                    15000002
         AIF   ('&ETXR'(1,1) EQ '(').ISAREGI                            15100002
         LA    14,&ETXR                          PICK UP ETXR ADDRESS   15200002
         STCM  14,7,21(15)             INSERT ETXR IN LIST              15300002
         AGO   .CONTN                                                   15400002
.ISAREGI STCM  &ETXR(1),7,21(15)       INSERT ETXR IN LIST              15500002
.CONTN   ANOP                                                           15600002
.CONTN0  AIF   ('&DPMOD' EQ '').CONTO                              RORI 15700002
         AIF   ('&DPMOD'(1,1) EQ '(').ISAREGJ                           15800002
         B     *+6                               BRANCH AROUND DPMOD    15900002
         AIF   ('&DPMOD'(1,1) EQ '+' OR '&DPMOD'(1,1) EQ '-').SIGNA     16000002
         DC    AL2(&DPMOD)                       DPMOD VALUE            16100002
         MVC   24(2,15),*-2                      INSERT DPMOD IN LIST   16200002
         AGO   .CONTO                                                   16300002
.SIGNA   DC    AL2(0&DPMOD)                      DPMOD VALUE            16400002
         MVC   24(2,15),*-2                      INSERT DPMOD IN LIST   16500002
         AGO   .CONTO                                                   16600002
.ISAREGJ STH   &DPMOD(1),24(15,0)                INSERT DPMOD IN LIST   16700002
.CONTO   AIF   ('&LPMOD' EQ '').CONTP                                   16800002
         AIF   ('&LPMOD'(1,1) EQ '(').ISAREGK                           16900002
         MVI   26(15),&LPMOD                     INSERT LPMOD IN LIST   17000002
         AGO   .CONTP                                                   17100002
.ISAREGK STC   &LPMOD(1),26(15,0)                INSERT LPMOD IN LIST   17200002
.CONTP   ANOP                                                      I270 17300002
.* BITS 6 AND 7 OF BYTE 20 PREVIOUSLY DEFINED FOR ROLL PARMS     Y02752 17400002
         AIF   (&NUMB4 EQ 255).TQEFPR1                           Y02752 17500002
         NI    20(15),&NUMB4      SET TQE AND/OR FPREGSA OFF     Y02752 17600002
.TQEFPR1 ANOP                                                    X02050 17800002
         OI    20(15),&NUMB2      OS/VS2 LIST, TQE,FPREGSA       Y02752 17900002
         AIF   (&NUMB EQ 0).LSQA1                                       22000002
         OI    27(15),&NUMB                                             22100002
.LSQA1   AIF   ('&LSQA' EQ '0').JSCB1                                   22200002
         AIF   ('&LSQA'(1,1) EQ '(').ISAREGL                            22300002
         MVI   36(15),&LSQA        INSERT LSQA IN LIST                  22400002
         AGO   .JSCB1                                                   22500002
.ISAREGL STC   &LSQA(1),36(15,0)   INSERT LSQA IN LIST           YM1995 22600002
.JSCB1   AIF   ('&JSCB' EQ '').CONTQ5                                   22700002
         AIF   ('&JSCB'(1,1) EQ '(').ISAREG1                            22800002
         LA    14,&JSCB           PICK UP JSCB ADDRESS                  22900002
         STCM  14,7,37(15)        INSERT JSCB INTO LIST                 23000002
         AGO   .CONTQ5                                            20028 23100002
.ISAREG1 STCM  &JSCB(1),7,37(15)  INSERT JSCB INTO LIST                 23200002
.CONTQ5  ANOP                                                     20028 23300002
         AIF   ( NOT (&SWSTAI OR &SWESTAI) ).TTID  NEITHER GIVEN Y02752 23400002
.* IF EITHER STAI OR ESTAI GIVEN, OVERRIDE BYTES DEC 41 - 47     Y02752 23800002
.STAIRB  AIF   ('&STXADDR'(1,1) EQ '(' ).REG1                    Y02752 24300002
         LA    14,&STXADDR        GET STAI/ESTAI EXIT ADDR       Y02752 24400002
         ST    14,44(,15)         STAI/ESTAI EXIT ADDR INTO LIST Y02752 24500002
         AGO   .STAI2                                             20028 24600002
.REG1    ST    &STXADDR,44(,15)   STAI/ESTAI EXIT ADDR INTO LIST Y02752 24700002
.STAI2   ANOP                                                    Y02752 24800002
         AIF   (&NUMB3 EQ 0).STAZ  NO FLAGS TO BE SET            Y02752 25200002
         MVI   44(15),&NUMB3      SET STAI/ESTAI FLAGS           Y02752 25600002
.STAZ    ANOP                                                    Y02752 26000002
         AIF   ('&STPADDR' NE '').STY                            Y02752 26400002
         SR    14,14                                             Y02752 26460002
         STCM  14,7,41(15)        NO STAI/ESTAI PARM LIST ADDR   Y02752 26520002
         AGO   .TTID                                             Y02752 26580002
.STY     ANOP                                                    Y02752 26640002
         AIF   ('&STPADDR'(1,1) EQ '(').REG2                     Y02752 26700002
         LA    14,&STPADDR        GET STAI/ESTAI PARM LIST ADDR  Y02752 26760002
         STCM  14,7,41(15)        STAI/ESTAI PARM LIST ADDR      Y02752 26820002
         AGO   .TTID                                                    26900002
.REG2    STCM  &STPADDR,7,41(15)  STAI/ESTAI PARM LIST ADDR      Y02752 27000002
.TTID    AIF   ('&TID' EQ '0').TLIBE                                    27100002
         AIF   ('&TID'(1,1) EQ '(').REGTID                              27200002
         MVI   40(15),&TID         INSERT TID IN LIST                   27300002
         AGO   .TLIBE                                                   27400002
.REGTID  STC   &TID(1),40(15,0)    INSERT TID IN LIST            YM1995 27500002
.TLIBE   AIF   ('&TASKLIB' EQ '').NSHSP1                         Y02752 27600002
.TLIBEA  AIF   ('&TASKLIB'(1,1) EQ '(').TREGE                     20021 27900002
         LA    14,&TASKLIB(1) GET TASKLIB DCB ADDR.               20021 28000002
         ST    14,48(,15)    .PUT TASKLIB DCB ADDR. IN LIST.      20021 28100002
         AGO   .NSHSP1                                           Y02752 28200002
.TREGE   ST    &TASKLIB(1),48(,15) TASKLIB DCB ADDR. IN LIST.     20021 28300002
.NSHSP1  ANOP                                                    Y02752 28310002
         MVI   55(15),60          SET LENGTH OF THIS PARM LIST   Y02752 28320002
         AIF   ('&NSHSPL' EQ '').NSHSP2                          Y02752 28330002
         AIF   ('&RSAPF' EQ 'YES').NSHSP6   RSAPF ALSO ON      @Z40RP9B 28340003
         OI    52(15),X'80'       NEXT WORD HAS SP LIST ADDR     Y02752 28342003
.NSHSP7  ANOP                                                  @Z40RP9B 28344003
         AIF   ('&NSHSPL'(1,1) EQ '(' ).NSHSP3                   Y02752 28350002
         LA    14,&NSHSPL         GET SP LIST ADDR               Y02752 28360002
         ST    14,56(,15)         NSHSPL ADDR INTO PARM LIST     Y02752 28370002
         AGO   .SVC                                               20021 28400002
.NSHSP3  ANOP                                                    Y02752 28407002
         ST    &NSHSPL(1),56(,15) NSHSPL ADDR INTO PARM LIST     Y02752 28414002
         AGO   .SVC                                              Y02752 28421002
.NSHSP2  ANOP                                                    Y02752 28428002
         AIF   ('&NSHSPV' EQ '').NSHSP8                        @Z40RP9B 28435003
         NI    52(15),X'7F'       NEXT WORD CONTAINS SP VALUE    Y02752 28437003
         AIF   ('&RSAPF' NE 'YES').NSHSP5                      @Z40RP9B 28439003
         OI    52(15),X'40'        SET APF FLAG ON             @Z40RP9B 28441003
.NSHSP5  ANOP                                                  @Z40RP9B 28443003
         AIF   ('&NSHSPV'(1,1) EQ '(' ).NSHSP4                   Y02752 28449002
         LA    14,&NSHSPV.(0,0)   SP VALUE FOR NSHSPV            YM1995 28456002
         ST    14,56(,15)          PARM INTO LIST                Y02752 28463002
         AGO   .SVC                                              Y02752 28470002
.NSHSP4  ANOP                                                    Y02752 28477002
         ST    &NSHSPV(1),56(,15) SET SP VALUE FOR NSHSPV        Y02752 28484002
         AGO   .SVC                                              Y02752 28491002
.NSHSP6  OI    52(15),X'C0'      SET NSHSPL AND RSAPF FLAGS    @Z40RP9B 28492003
         AGO   .NSHSP7                                         @Z40RP9B 28493003
.NSHSP8  ANOP                                                  @Z40RP9B 28494003
         AIF   ('&RSAPF' NE 'YES').SVC NO FLGS ON              @Z40RP9B 28495003
         OI    52(15),X'40'      SET APF FLAG ON               @Z40RP9B 28496003
         AGO   .SVC                                            @Z40RP9B 28497003
.LROUT   ANOP                                                           28500002
.* L FORM MUST ACCEPT ALL PARAMETERS POSSIBLE. A LIST OF ALL     Y02752 28530002
.* ZEROS MUST BE ACCEPTABLE AS AN L FORM.                               28560002
&NAME    DS    0F                                                       28600002