         MACRO                                                          03000020
&NAME    ATTEN                                                          06000020
         GBLA  &IEDQZE(64)                                              09000020
         GBLB  &IEDQZA(64)                                              12000020
.*A78000                                                         S22029 18000010
.*C330000,750000                                                 S22029 20000010
.*D150000,210000-240000,540000-690000                            S22029 22000010
.*       VERSION DATED SEPT 14,1971                              S22029 24000010
         SPACE                                                          27000020
.DFLT    AIF   (NOT &IEDQZA(9)).NODFLT                                  30000020
.AT1     AIF   (&IEDQZA(5)).VCON                                 S22029 33000010
         MNOTE 12,'***  IHB070  SEQUENCE ERROR-MUST FOLLOW INMSG OR    *36000020
                OUTMSG MACRO.'                                          39000020
         AGO   .MEND                                                    42000020
.NODFLT  MNOTE 12,'***  IHB312  -  MACRO MUST FOLLOW STARTMH MACRO WITH*45000020
                TSOMH=YES.'                                             48000020
         AGO   .MEND                                                    51000020
.VCON    IEDQVCON 8,IEDAYX  .      INMSG/OUTMSG INTERFACE               72000020
&NAME    DC    AL1(&IEDQZE(8)),AL1(12),X'0100'                   S22029 75000010
         DC    XL4'00120000'                                            78000020
         DC    V(IEDAYA) . ADDRESS OF ATTENTION ROUTINE          S22029 79000010
.MEND    SPACE 2                                                        81000020
         MEND                                                           84000020
