         PRINT OFF                                                      00050000
         MACRO                                                          00100000
&NAME    BNGHJN &LABEL,&HJN                                             00150000
         LCLA  &K                                                       00200000
         LCLC  &HJA,&HJB,&HJC                                           00250000
&HJC     SETC  'PTF NO.'                                                00300000
&K       SETA  K'&SYSPARM                                               00350000
         AIF   (&K LT 4).CODE                                           00400000
&HJA     SETC  '&SYSPARM'(1,4)                                          00450000
         AIF   (&K LT 8).CODE                                           00500000
&HJB     SETC  '&SYSPARM'(5,4)                                          00550000
         AIF   (&K LT 15).CODE                                          00600000
&HJC     SETC  '&SYSPARM'(9,7)                                          00650000
.CODE    ANOP                                                           00700000
         AIF   ('&LABEL' EQ '').NOBRNCH                                 00750000
         B     &LABEL .                 BR AROUND CONSTANTS             00800000
         SPACE 2                                                        00850000
.NOBRNCH ANOP                                                           00900000
         AIF   ('&NAME' EQ '').NOLABEL                                  00950000
         DC    C'&NAME' .              MODULE IDENTIFIER                01000000
.NOLABEL ANOP                                                           01050000
         AIF   ('&HJA' EQ '').NEXT                                      01100000
         DC    X'&HJA' .                DATE OF MODIFICATION            01150000
.NEXT    ANOP                                                           01200000
         AIF   ('HJB' EQ '').DATE                                       01250000
         AIF   ('&HJN' NE 'HJN').DATE                                   01300000
         DC    X'&HJB' .                HJN OF MODIFICATION             01350000
.DATE    ANOP                                                           01400000
         DC    C'&HJC' .                PTF LEVEL                       01450000
.NOPTF   ANOP                                                           01500000
         AIF   ('&LABEL' EQ '').NOLBL                                   01550000
         SPACE 2                                                        01600000
&LABEL   DS    0H                                                       01650000
.NOLBL   ANOP                                                           01700000
         MEND                                                           01750000
         PRINT ON                                                       01800000
*********************************************************************** 01850000
*                                                                     * 01900000
* MODULE NAME = BNGC3270                                              * 01950000
*                                                                     * 02000000
* DESCRIPTIVE NAME = CICS DEMF 3270 DISPLAY MODULE                    * 02050000
*                                                                     * 02100000
* COPYRIGHT = NONE                                                    * 02150000
*                                                                     * 02200000
* STATUS = RELEASE 1, LEVEL 1                                         * 02250000
*                                                                     * 02300000
* FUNCTION = 1) RECEIVES CONTROL FROM BNGCDISP;                       * 02350000
*            2) HANDLES 3270 DISPLAY TERMINAL ERROR INFORMATION       * 02400000
*               REQUEST AND BITS PROMPTER REQUEST;                    * 02450000
*            3) ACCESSES SYS1.DEMFLOG DATA FILE AND COLLECTS THE      * 02500000
*               REQUESTED 3270 ERROR INFORMATION FROM IT;             * 02550000
*            4) FORMS OUTPUT MESSAGE WITH DISPLAY FORMAT AND WRITES   * 02600000
*               IT TO THE 3270 DISPLAY TERMINAL; (ERR INFO AND SOME   * 02650000
*               OF DISPLAY MESSAGES)                                  * 02700000
*            5) RETURNS CONTROL TO CICS.                                02750000
*                                                                     * 02800000
* NOTES = NONE                                                        * 02850000
*                                                                     * 02900000
*    DEPENDENCIES =                                                   * 02950000
*                                                                     * 03000000
*    THE FOLLOWING ARE CICS TABLES/CONTROL BLOCKS AND THEIR LABELS    * 03050000
*    USED BY DEMF CICS MODULES (BNGCDISP,BNGC3270,BNGCLOCL,BNGCRMOT   * 03100000
*    BNGCMENU) :                                                      * 03150000
*                                                                     * 03200000
*    CICS TABLE AND                                                   * 03250000
*    CONTROL BLOCKS                  LABELS USED                      * 03300000
*    ----------------------          -----------                      * 03350000
*                                                                     * 03400000
*    COMMON SYSTEM AREA              CSATCTBA                         * 03450000
*    (CSA)                                                            * 03500000
*                                                                     * 03550000
*    TERMINAL CONTROL TABLE          TCTTEDA                          * 03600000
*    TERMINAL ENTRY (TCTTE)          TCTTETM                          * 03650000
*                                    TCTTELT                          * 03700000
*                                    TCTTETI                          * 03750000
*                                    TCTTECLT                         * 03800000
*                                    TCTTETEL                         * 03850000
*                                    TCTTETT                          * 03900000
*                                    TCTTEGU                          * 03950000
*                                    TCTTETA                          * 04000000
*                                                                     * 04050000
*    TERMINAL CONTROL TABLE          TCTLELF                          * 04100000
*    LINE ENTRY (TCTLE)              TCTLEFAA                         * 04150000
*                                    TCTLEPI                          * 04200000
*                                    TCTLEMFP                         * 04250000
*                                    TCTLEPA                          * 04300000
*                                    TCTLEDCB                         * 04350000
*                                    TCTLERLN                         * 04400000
*                                                                     * 04450000
*    TERMINAL INPUT/OUTPUT AREA      TIOADBA                          * 04500000
*    (TIOA)                          TIOATDL                          * 04550000
*                                                                     * 04600000
*    TASK CONTROL AREA               TCAFCAAA                         * 04650000
*    (TCA)                           TCAFCAA                          * 04700000
*                                    TCAPCPI                          * 04750000
*                                    TCASCSA                          * 04800000
*                                                                     * 04850000
*    FILE INPUT/OUTPUT AREA          FIOADBA                          * 04900000
*    (FIOA)                                                           * 04950000
*                                                                     * 05000000
*    RESTRICTIONS = NONE                                              * 05050000
*                                                                     * 05100000
*    REGISTER CONVENTIONS = R12 ADDRESS OF TCA                        * 05150000
*                           R13 ADDRESS OF CSA                        * 05200000
*                                                                     * 05250000
*    PATCH LABEL = PATCH                                       @OX21950 05300000
*                                                                     * 05350000
* MODULE TYPE = COCS DISPLAY                                          * 05400000
*                                                                     * 05450000
*    PROCESSOR = ASSEMBLER H                                          * 05500000
*                                                                     * 05550000
*    MODULE SIZE = 6976 DECIMAL BYTES                                 * 05600000
*                                                                     * 05650000
*    ATTRIBUTES = QUASI-REENTRANT                                     * 05700000
*                                                                     * 05750000
* ENTRY POINT = BNGC3270                                              * 05800000
*                                                                     * 05850000
*    PURPOSE = SEE FUNCTION                                           * 05900000
*                                                                     * 05950000
*    LINKAGE = R1  LOADED WITH THE PARAM LIST POINTER                 * 06000000
*              R14 LOADED WITH THE RETURN ADDR (USED BY SUBROUTINE)   * 06050000
*              R15 LOADED WITH ENTRY POINT                            * 06100000
*                                                                     * 06150000
* INPUT = PARAM LIST ITEMS USED ARE : INPUT TIOA AT BEGINNING OF PGM  * 06200000
*                                                                     * 06250000
* OUTPUT = PARAM LIST ITEMS USED ARE : OUTPUT TIOA AT LABEL - GETTIOA * 06300000
*                                                                     * 06350000
* EXIT-NORMAL = REGISTER 15 RETURN CODE RETURNED TO CALLER :          * 06400000
*               00 - OPERATION PERFORMED AS REQUESTED                 * 06450000
*                                                                     * 06500000
* EXIT-ERROR  = NONE                                                  * 06550000
*                                                                     * 06600000
* EXTERNAL REFERENCE = NONE                                           * 06650000
*                                                                     * 06700000
*    ROUTINES = LOCATE ROUTINE                                        * 06750000
*               GETTIOA ROUTINE (GET TERMINAL OUTPUT AREA)            * 06800000
*               BUOBR ROUTINE (BLOW-UP OBR ROUTINE)                   * 06850000
*               BUMDR ROUTINE (BLOW-UP MDR ROUTINE)                   * 06900000
*                                                                     * 06950000
*    DATA AREAS =  TWA (300 BYTES)                                    * 07000000
*                                                                     * 07050000
*    CONTROL BLOCK = DFHCSADS, DFHTCTLE, DFHTCTTE, DFHTCADS,          * 07100000
*                    DFHTIOA, DFHFIOA                                 * 07150000
*                                                                     * 07200000
* TABLES = CALENDAR - CONVERT JULIAN DATE TO GREGORIAN DATE TABLE     * 07250000
*          LEAPTBL  - LEAP YEAR CALCULATION TABLE                     * 07300000
*          CCWTABL  - CONVERT 270X COMMAND CODE INTO ENGLISH          * 07350000
*          CSWTABL  - CONVERT LOCAL 327X STATUS OR 270X LINE STATUS   * 07400000
*                     INTO ENGLISH                                    * 07450000
*          SENSTABL - CONVERT 270X LINE SENSE CODE INTO ENGLISH       * 07500000
*          STATSTBL - CONVERT REMOTE 327X STATUS CODE INTO ENGLISH    * 07550000
*          SENS3272 - CONVERT LOCAL 327X SENSE CODE INTO ENGLISH      * 07600000
*          CCW3272  - CONVERT LOCAL 327X COMMAND CODE INTO ENGLISH    * 07650000
*          TPOPTBL  - CONVERT BTAM TP OP CODE INTO ENGLISH            * 07700000
*          CICSPTOP - CONVERT TCAM TP OP CODE INTO ENGLISH            * 07750000
*          HXTOEB   - HEX CHARS TO EBCDIC CHARS TABLE                 * 07800000
*          EBTOHX   - EBCDIC CHARS TO HEX CHARS TABLE                 * 07850000
*                                                                     * 07900000
* MACROS = DCBD, DFHPC, DFHSC, DFHTC, DFHPC                           * 07950000
*                                                                     * 08000000
* CHANGE ACTIVITIES AS FOLLOWS:                                       * 08050000
* CHANGE 01  11/15/77  PROLOGUE ADDED                                 * 08100000
* CHANGE 02  02/27/78  BNGHJN MACRO ADDED                             * 08150000
*A110800,246000                                                @OZ30480 08200000
*A192000,374800,414000                                         @OZ31885 08250000
*C384000-384800                                                @OX21950 08300000
*A472800                                                       @OX21950 08350000
*C132400,167600,192800,346400                                  @OX22095 08400000
*A160000,161200,354800                                         @OX22095 08450000
*DUMMY APAR TO CORRECT PREREQ STRINGS ON PREVIOUS PTF'S        @OZ36693 08500000
*A230000                                                       @OZ38643 08550000
*A302000                                                       @OZ40264 08600000
*A149405-149465                                                @OX25492 08650000
*A203625-203875                                                @OX27899 08675000
*********************************************************************** 08700000
BNGC3270 TITLE 'DISPLAY 3270 MDR AND OBR ENTRIES'                       08750000
R1       EQU   1                                                        08800000
BASE1    EQU   2                   1ST PROGRAM BASE REG.                08850000
BASE2    EQU   3                   2ND PROGRAM BASE REG.                08900000
TCTTEAR  EQU   4                   TCT TERML ENTRY REG.                 08950000
TIOABAR  EQU   5                   TIOA POINTER.                        09000000
FIOABAR  EQU   6                   FIOA POINTER.                        09050000
DATAREG  EQU   7                   POINTER TO DATA IN EMF FILE BLOCK.   09100000
DATALOOP EQU   8                   LOOP REG FOR PROCESSING WITH DATAREG 09150000
OUTREG   EQU   9                   POINTER TO VARIABLE AREA IN TIOA.    09200000
OUTLOOP  EQU   10                  LOOP REG FOR PROCESSING WITH OUTREG. 09250000
LINKREG  EQU   11                  LINKAGE TO COMMON SUBROUTINES.       09300000
R15      EQU   15                                                       09350000
SBA      EQU   X'11'                                                    09400000
SF       EQU   X'1D'                                                    09450000
IC       EQU   X'13'                                                    09500000
UNA      EQU   X'40'                                                    09550000
UHA      EQU   X'C8'                                                    09600000
PNA      EQU   X'60'                                                    09650000
PDA      EQU   X'E8'                                                    09700000
PIA      EQU   X'6D'                                                    09750000
MNP      EQU   X'61'                                                    09800000
L2P1     EQU   X'C150'                                                  09850000
L3P1     EQU   X'C260'                                                  09900000
L1P1     EQU   X'4040'                                                  09950000
L5P1     EQU   X'C260'                                                  10000000
L1P36    EQU   X'40E3'                                                  10050000
L4P1     EQU   X'C3F0'                                                  10100000
L1P7     EQU   X'40C6'                                                  10150000
L3P39    EQU   X'C1F6'                                                  10200000
L2P79    EQU   X'C25E'                                                  10250000
L2P1LG   EQU   X'C150'                                                  10300000
L3P1LG   EQU   X'C260'                                                  10350000
L4P1LG   EQU   X'C3F0'                                                  10400000
L1P1SM   EQU   X'4040'                                                  10450000
L2P1SM   EQU   X'40E8'                                                  10500000
L3P1SM   EQU   X'C150'                                                  10550000
L4P1SM   EQU   X'C1F8'                                                  10600000
L6P26    EQU   X'C6E9'                                                  10650000
         PRINT OFF                                                      10700000
         COPY  DFHCSADS                                                 10750000
         COPY  DFHTCTLE                                                 10800000
         COPY  DFHTCTTE                                                 10850000
         COPY  DFHTCADS                                                 10900000
         PRINT ON                                                       10950000
PARM1    DS    D                   1ST INPUT FIELD.                     11000000
PARM2    DS    D                   2ND INPUT FIELD.                     11050000
PARM3    DS    D                   3RD INPUT FIELD.                     11100000
PARM4    DS    D                   4TH INPUT FIELD.                     11150000
PARM5    DS    D                   5TH INPUT FIELD.                     11200000
PARM6    DS    D                   6TH INPUT FIELD.                     11250000
TWASBAS  DS    PL1                 COUNT OF SBA'S IN INPUT MSG.         11300000
TWAREL   DS    CL3                 FILE CONTROL RELATIVE BLK ADDR.      11350000
TWALINE  DS    F                   ADDR OF OUR TCTLE                    11400000
DUBLWD   DS    D                   WORK AREA.                           11450000
TWATIOA  DS    F                   SAVE INPUT ADDRESS.                  11500000
TWATCTID DS    F                   SAVE TERML ID.                       11550000
TWASLOT  DS    F                   SLOT COUNTER.                        11600000
SAVE14   DS    F                   SAVE AREA.                           11650000
TWAOUT   DS    F                   SAVE OUTPUT HDR ADDR                 11700000
LINESZ   DS    H                   LINE SIZE (3277 MOD 1 OR MOD 2)      11750000
LINELOOP DS    H                   NBR LINE ITEMS PER LINESZ.           11800000
OUTSWCH  DS    C                                                        11850000
HXLINLIB DS    0CL6                LINE ADDRESS INCLUDING               11900000
         DS    C                                                        11950000
HEXLINE  DS    CL2                      VTAM LIB ADDR                   12000000
HEXLIB   DS    CL3                      IN HEX FORMAT.                  12050000
HEXCTRL  DS    C                   CTRL UNIT POLL CHAR.                 12100000
HEXTERM  DS    C                   TERML POLL CHAR.                     12150000
NEWFIRST DS    CL5                 SAVE AREA FOR OLD BLK & SLOT NBR.    12200000
NEWPREV  DS    CL5                 SAVE AREA FOR OLD BLK & SLOT NBR.    12250000
SAVETERM DS    CL8                 TERMINAL SAVE AREA FOR 'NO ERR' MSG  12300000
SAVECU   DS    CL8                 CTRL UNIT SAVE AREA FOR 'NO ERR' MSG 12350000
SAVELINE DS    CL8                 LINE SAVE AREA FOR 'NO ERR' MSG      12400000
SAVEID   DS    CL20                CICS SYMBOLIC ID FOR 'NO ERR' MSG    12450000
BITFIRST DS    CL5                 FIRST BBBSS                          12500000
BITLAST  DS    CL5                 SECOND BBBSS                         12550000
BITPREV  DS    CL5                 THIRD BBBSS                          12600000
DATDATE  DS    CL4                 DATE OF ERROR - 00YYDDDF             12650000
DATTIME  DS    CL4                 TIME OF ERROR - HHMMSSHH             12700000
DATASLOT DSECT                                                          12750000
         USING *,DATAREG                                                12800000
DATALTH  DS    C                   LTH OF THIS SLOT                     12850000
LINEID   DS    CL6                 LINE AND LIB ADDR                    12900000
ENTRYTYP DS    C                   ENTRY TYPE - MDR OR OBR              12950000
         DS    CL3                                                      13000000
MDRTYPE  DS    C                   TYPE HDWE - 03 EQUALS 3270           13050000
         DS    CL3                                                      13100000
DATE     DS    CL4                 DATE OF ERROR - 00YY0DDF             13150000
TIME     DS    CL4                 TIME OF ERROR - HHMMSSHH             13200000
         DS    CL8                                                      13250000
MDRCUA   DS    CL2                 MDR CHAN & UNIT ADDR                 13300000
MDRCTRL  DS    C                   MDR CTRL UNIT POLL ADDR              13350000
MDRTERM  DS    C                   MDR TERMIL POLL ADDR                 13400000
MDRSTATS DS    CL2                 REMOTE 3270 STATUS                   13450000
         DS    CL2                                                      13500000
OBRCCW   DS    CL8                 LAST CCW EXECUTED                    13550000
OBRCSW   DS    CL8                 CHANNEL STATUS WORD                  13600000
         DS    CL6                                                      13650000
OBRUCB   DS    C                                                        13700000
         DS    CL3                                                      13750000
OBRCUA   DS    CL2                 OBR CHAN & UNIT ADDR                 13800000
OBRCTRL  DS    C                                                        13850000
OBRTERM  DS    C                                                        13900000
         DS    CL12                                                     13950000
OBRSENSE DS    CL2                 OBR SENSE BYTES                      14000000
         ORG   DATALTH                                                  14050000
CTRLPORT DS    CL6                 PORT & LIB ADDRESS                   14100000
         DS    CL4                                                      14150000
CTRLFRST DS    CL3                 REL BLK ADDR 1ST BLK IN CHAIN.       14200000
         DS    CL3                                                      14250000
SLOTLTH  EQU   *-CTRLPORT                                               14300000
         COPY  DFHTIOA                                                  14350000
SBA1     DS    CL3                 1ST SBA POSITION.                    14400000
CODE     DS    CL4                 TRANS CODE.                          14450000
SBA2     DS    CL3                 2ND SBA                              14500000
PGRM     DS    CL4                 PROGRAM NAME.                        14550000
SBA3     DS    CL3                 3RD SBA.                             14600000
FLP      DS    CL15                FIRST/LAST/PREVIOUS IF BLOWUP RQST.  14650000
SBA4     DS    CL3                 4TH SBA.                             14700000
BUX      DS    CL4                 X FOR BLOWUP REQUEST.                14750000
TIOITEM  DS    CL5                 ITEM ADDRESS TO BLOWUP.              14800000
         ORG   FLP                 START OF BBBSS AREAS                 14850000
         DS    C                   FOR FORWARD AND BACKWARD REQUST      14900000
         DS    CL3                 4TH SBA FOR BBBSS                    14950000
TIOFIRST DS    CL5                 FIRST BBBSS AREA                     15000000
TIOLAST  DS    CL5                 LAST BBBSS AREA                      15050000
TIOPREV  DS    CL5                 PREVIOUS BBBSS AREA                  15100000
         COPY  DFHFIOA                                                  15150000
CTRLLAST DS    F                   LAST USED ADDR IN DATASET            15200000
CTRLTOTL DS    F                   TOTAL BLOCKS IN DATASET              15250000
CTRLBACK DS    F                   BACKWARD PTR IN CTRL BLK CHAIN       15300000
CTRLFWD  DS    F                   FORWARD PTR IN CTRL BLK CHAIN        15350000
CTRLENTS DS    C                   NBR ENTRIES IN THIS CTRL BLK         15400000
         DS    CL15                FOR FUTURE USE                       15450000
CTRLSLT1 DS    0C                  START OF CTRL SLOT NBR ONE.          15500000
         ORG   FIOADBA                                                  15550000
DATAPORT DS    CL6                 PORT & LIB ADDR                      15600000
DATATIME DS    CL4                 TIME BLOCK CREATED                   15650000
DATADATE DS    CL4                 DATE BLOCK CREATED                   15700000
DATAFWD  DS    CL3                 FORWARD CHAIN ADDR                   15750000
DATABACK DS    CL3                 BACKWAD CHAIN ADDR                   15800000
BLKLTH   DS    CL2                 NBR BYTES USED IN THIS BLOCK         15850000
         DS    CL10                                                     15900000
DATASLT1 DS    0C                  START OF 1ST DATA SLOT               15950000
BNGC3270 CSECT                                                          16000000
         BALR  BASE1,0                                                  16050000
         USING *,BASE1,BASE2                                            16100000
BNGC3270 BNGHJN SKIPID                                         @OZ30480 16150000
         LA    BASE2,2048(BASE1)   SETUP PROGRAM BASE REGS.             16200000
         LA    BASE2,2048(BASE2)                                        16250000
         L     TCTTEAR,TCAFCAAA    POINT TO TCT TERML ENTRY.            16300000
         LA    TCTTEAR,0(TCTTEAR)  CLEAR HIGH ORDER BYTE FROM ADDR      16350000
         L     TIOABAR,TCTTEDA     POINT TO TIOA INPUT AREA.            16400000
A005     CP    TWASBAS,=P'2'       WERE LESS THAN 2 FIELDS INPUT?       16450000
         BNL   J010                NO. GO EXAMINE INPUT FURTHER.        16500000
A010     XC    TWAREL,TWAREL       YES. THIS IS A NEW RECAP REQUEST.    16550000
         CLC   PARM3(3),=C'ALL'    IF PARM 3 IS ONE OF THE DEMF         16600000
         BE    A140                DISPLAY CODES, THIS INPUT WAS FROM   16650000
         CLC   PARM3(4),=C'CTRL'          FORMATTED SCREEN.             16700000
         BE    A140                ZERO IT OUT AND TRY AGAIN.           16750000
         CLC   PARM3(4),=C'LINE'                                        16800000
         BE    A140                                                     16850000
         CLC   PARM3(4),=C'3270'                                        16900000
         BE    A140                                                     16950000
         CLC   PARM4(3),=C'ALL'                                         17000000
         BE    A130                                                     17050000
         CLC   PARM4(4),=C'CTRL'                                        17100000
         BE    A130                                                     17150000
         CLC   PARM4(4),=C'LINE'                                        17200000
         BE    A130                                                     17250000
         CLC   PARM4(4),=C'3270'                                        17300000
         BE    A130                                                     17350000
         CLC   PARM5(3),=C'ALL'                                         17400000
         BE    A120                                                     17450000
         CLC   PARM5(4),=C'CTRL'                                        17500000
         BE    A120                                                     17550000
         CLC   PARM5(4),=C'LINE'                                        17600000
         BE    A120                                                     17650000
         CLC   PARM5(4),=C'3270'                                        17700000
         BE    A120                                                     17750000
         OC    PARM3,PARM3         WAS LINE ID INPUT?                   17800000
         BNZ   B140                YES. GO SEARCH CTRL BLK FOR IT.      17850000
         TM    TCTEAMIB,TCTEVTAM    IS THIS FROM A VTAM TERM?           17900000
         BO    A110                 YES. CAN'T HONOR REQUEST.           17950000
         L     14,CSATCTBA         POINT TO TCT PREFIX.                 18000000
         L     14,4(14)            POINT TO BTAM ADCON LIST.            18050000
A030     CLC   0(4,14),=X'FFFFFFFF'  ANY MORE LINES TO LOOK AT?         18100000
         BE    S190                NO. SEND 'INVALID INPUT' MSG.        18150000
         L     1,0(14)             POINT TO A LINE.                     18200000