         PRINT OFF                                                      00050000
         MACRO                                                          00100000
&NAME    BNGHJN &LABEL,&HJN                                             00150000
         LCLA  &K                                                       00200000
         LCLC  &HJA,&HJB,&HJC                                           00250000
&HJC     SETC  'PTF NO.'                                                00300000
&K       SETA  K'&SYSPARM                                               00350000
         AIF   (&K LT 4).CODE                                           00400000
&HJA     SETC  '&SYSPARM'(1,4)                                          00450000
         AIF   (&K LT 8).CODE                                           00500000
&HJB     SETC  '&SYSPARM'(5,4)                                          00550000
         AIF   (&K LT 15).CODE                                          00600000
&HJC     SETC  '&SYSPARM'(9,7)                                          00650000
.CODE    ANOP                                                           00700000
         AIF   ('&LABEL' EQ '').NOBRNCH                                 00750000
         B     &LABEL .                 BR AROUND CONSTANTS             00800000
         SPACE 2                                                        00850000
.NOBRNCH ANOP                                                           00900000
         AIF   ('&NAME' EQ '').NOLABEL                                  00950000
         DC    C'&NAME' .              MODULE IDENTIFIER                01000000
.NOLABEL ANOP                                                           01050000
         AIF   ('&HJA' EQ '').NEXT                                      01100000
         DC    X'&HJA' .                DATE OF MODIFICATION            01150000
.NEXT    ANOP                                                           01200000
         AIF   ('HJB' EQ '').DATE                                       01250000
         AIF   ('&HJN' NE 'HJN').DATE                                   01300000
         DC    X'&HJB' .                HJN OF MODIFICATION             01350000
.DATE    ANOP                                                           01400000
         DC    C'&HJC' .                PTF LEVEL                       01450000
.NOPTF   ANOP                                                           01500000
         AIF   ('&LABEL' EQ '').NOLBL                                   01550000
         SPACE 2                                                        01600000
&LABEL   DS    0H                                                       01650000
.NOLBL   ANOP                                                           01700000
         MEND                                                           01750000
         PRINT ON                                                       01800000
*********************************************************************** 01850000
*                                                                     * 01900000
* MODULE NAME = BNGCDISP                                              * 01950000
*                                                                     * 02000000
* DESCRIPTIVE NAME = CICS DEMF DISPLAY CONTROL MODULE                 * 02050000
*                                                                     * 02100000
* COPYRIGHT = NONE                                                    * 02150000
*                                                                     * 02200000
* STATUS = RELEASE 1, LEVEL 1                                         * 02250000
*                                                                     * 02300000
* FUNCTION = 1) RECEIVES CONTROL FROM CICS;                           * 02350000
*            2) EDITS THE INPUT INTO 6 PARM FIELDS WITH LEFT JUSTIFY; * 02400000
*            3) DOES SYNTAX CHECK ON DEMF COMMANDS AND PARAMETERS;    * 02450000
*            4) DETERMINES WHETHER THE REQUEST IS FOR MENU,REMOTE,    * 02500000
*               LOCAL OR 3270 SCREEN ERROR DISPLAY AND PASSES CONTROL * 02550000
*               TO BNGTMENU,BNGTRMOT,BNGTLOCL OR BNGT3270 SEGMENT     * 02600000
*               ACCORDINGLY WITH PARAMETERS;                          * 02650000
*            5) HANDLES ALL,LINE AND CTRL ERROR DISPLAY REQUEST AND   * 02700000
*               WRITES ITS ERROR INFORMATION TO THE 3270 DISPLAY      * 02750000
*               TERMINAL AND ISSUES SOME OF THE DISPLAY MESSAGES;     * 02800000
*            6) ACCESSES SYS1.DEMFLOG DATA FILE FOR ALL,LINE AND CTRL * 02850000
*               ERROR DISPLAY REQUEST;                                * 02900000
*            7) RETURNS CONTROL TO CICS.                              * 02950000
*                                                                     * 03000000
* NOTES = NONE                                                        * 03050000
*                                                                     * 03100000
*    DEPENDENCIES =                                                   * 03150000
*                                                                     * 03200000
*    THE FOLLOWING ARE CICS TABLES/CONTROL BLOCKS AND THEIR LABELS    * 03250000
*    USED BY DEMF CICS MODULES (BNGCDISP,BNGC3270,BNGCLOCL,BNGCRMOT   * 03300000
*    BNGCMENU) :                                                      * 03350000
*                                                                     * 03400000
*    CICS TABLE AND                                                   * 03450000
*    CONTROL BLOCKS                  LABELS USED                      * 03500000
*    ----------------------          -----------                      * 03550000
*                                                                     * 03600000
*    COMMON SYSTEM AREA              CSATCTBA                         * 03650000
*    (CSA)                                                            * 03700000
*                                                                     * 03750000
*    TERMINAL CONTROL TABLE          TCTTEDA                          * 03800000
*    TERMINAL ENTRY (TCTTE)          TCTTETM                          * 03850000
*                                    TCTTELT                          * 03900000
*                                    TCTTETI                          * 03950000
*                                    TCTTECLT                         * 04000000
*                                    TCTTETEL                         * 04050000
*                                    TCTTETT                          * 04100000
*                                    TCTTEGU                          * 04150000
*                                    TCTTETA                          * 04200000
*                                                                     * 04250000
*    TERMINAL CONTROL TABLE          TCTLELF                          * 04300000
*    LINE ENTRY (TCTLE)              TCTLEFAA                         * 04350000
*                                    TCTLEPI                          * 04400000
*                                    TCTLEMFP                         * 04450000
*                                    TCTLEPA                          * 04500000
*                                    TCTLEDCB                         * 04550000
*                                    TCTLERLN                         * 04600000
*                                                                     * 04650000
*    TERMINAL INPUT/OUTPUT AREA      TIOADBA                          * 04700000
*    (TIOA)                          TIOATDL                          * 04750000
*                                                                     * 04800000
*    TASK CONTROL AREA               TCAFCAAA                         * 04850000
*    (TCA)                           TCAFCAA                          * 04900000
*                                    TCAPCPI                          * 04950000
*                                    TCASCSA                          * 05000000
*                                                                     * 05050000
*    FILE INPUT/OUTPUT AREA          FIOADBA                          * 05100000
*    (FIOA)                                                           * 05150000
*                                                                     * 05200000
*    RESTRICTIONS = NONE                                              * 05250000
*                                                                     * 05300000
*    REGISTER CONVENTIONS = R12 ADDRESS OF TCA                        * 05350000
*                           R13 ADDRESS OF CSA                        * 05400000
*                                                                     * 05450000
*    PATCH LABEL = NONE                                               * 05500000
*    PATCH LABEL = PATCH                                       @OX21950 05550000
*                                                                     * 05600000
* MODULE TYPE =  CICS DISPLAY CONTROL                                 * 05650000
*                                                                     * 05700000
*    PROCESSOR = ASSEMBLER H                                          * 05750000
*                                                                     * 05800000
*    MODULE SIZE = 5632 DECIMAL BYTES                                 * 05850000
*                                                                     * 05900000
*    ATTRIBUTES = QUASI-REENTRANT                                     * 05950000
*                                                                     * 06000000
* ENTRY POINT = BNGCDISP                                              * 06050000
*                                                                     * 06100000
*    PURPOSE = SEE FUNCTION                                           * 06150000
*                                                                     * 06200000
*    LINKAGE = R12 LOADED WITH THE ADDRESS OF TCA                     * 06250000
*              R13 LOADED WITH THE ADDRESS OF CSA                     * 06300000
*              R14 LOADED WITH THE RETURN ADDR (USED BY SUBROUTINE)   * 06350000
*              R15 LOADED WITH ENTRY POINT                            * 06400000
*                                                                     * 06450000
* INPUT =  INPUT TIOA                                                 * 06500000
*                                                                     * 06550000
* OUTPUT = OUTPUT TIOA                                                * 06600000
*                                                                     * 06650000
* EXIT-NORMAL = REGISTER 15 RETURN CODE RETURNED TO CALLER :          * 06700000
*               00 - OPERATION PERFORMED AS REQUESTED                 * 06750000
*                                                                     * 06800000
* EXIT-ERROR  = NONE                                                  * 06850000
*                                                                     * 06900000
* EXTERNAL REFERENCE = BNGCLOCL,BNGCRMOT,BNGCMENU AND BNGC3270        * 06950000
*                                                                     * 07000000
*    ROUTINES = LOCATE ROUTINE                                        * 07050000
*               MOD1SCAN ROUTINE                                      * 07100000
*               MOD1 TABLE BUILD (AT LABEL S215) ROUTINE              * 07150000
*                                                                     * 07200000
*    DATA AREAS =  TWA (300 BYTES)                                    * 07250000
*                                                                     * 07300000
*    CONTROL BLOCK = DFHCSADS, DFHTCTTE, DFHTCTLE, DFHTCADS,          * 07350000
*                    DFHTIOA, DFHFIOA                                 * 07400000
*                                                                     * 07450000
* TABLES = TABLE    - FUNCTION/COMPANION TABLE                        * 07500000
*          MOD1TAB  - 3277 MODEL 1 TABLE                              * 07550000
*          HXTOEB   - HEX CHARS TO EBCDIC CHARS TABLE                 * 07600000
*          EBTOHX   - EBCDIC CHARS TO HEX CHARS TABLE                 * 07650000
*          LOTOUP   - LOWER TO UPPER CASE CHARS TABLE                 * 07700000
*                                                                     * 07750000
* MACROS = DCBD, DFHFC, DFHSC, DFHTC, DFHPC                           * 07800000
*                                                                     * 07850000
* CHANGE ACTIVITIES AS FOLLOWS:                                       * 07900000
* CHANGE 01  11/15/77  PROLOGUE ADDED                                 * 07950000
* CHANGE 02  02/22/78  BNGHJN MACRO ADDED                             * 08000000
* 12/30/83 ALTER GETMAIN SIZE REQUEST TO INSURE AREA IS SAME @OZ59145 * 08016600
*          SIZE AS FULL SCREEN PLUS FIELD START CHARACTERS   @OZ59145 * 08033200
*A139000                                                       @OZ29900 08050000
*C521500                                                       @OZ30480 08100000
*A489500                                                       @OZ31882 08150000
*D454000-455000                                                @OZ31878 08200000
*C456500-457000,551500-552000,601000-602000,603500-607000      @OZ31878 08250000
*C608500-611000                                                @OZ31878 08300000
*A412000,654500,684000                                         @OZ31885 08350000
*C037000,360500-361500                                         @OX21950 08400000
*A728500                                                       @OX21950 08450000
*C142500                                                       @OX22096 08500000
*A654800                                                       @OX22096 08550000
*C358000,641000-642500,645000,646000,647000,648000,650500      @OX22095 08600000
*C651500,653500-654000,654700                                  @OX22095 08650000
*A281500                                                       @OX22763 08700000
*DUMMY APAR TO CORRECT PREREQ STRINGS ON PREVIOUS PTF'S        @OZ36693 08750000
*C288000                                                       @OZ37867 08800000
*A431500                                                       @OZ38643 08850000
*C332500                                                       @OZ43235 08900000
*A295505-295565                                                @OX25492 08950000
*C076000-077000                                                @OZ39277 09000000
*A285700,285800,292700,292800                                  @OX25587 09050000
*C285500,286500,292500,293500                                  @OX25587 09100000
*********************************************************************** 09150000
BNGCDISP TITLE 'DISPLAY AUDITS INPUT AND DISPLAYS ALL LINES,LINE, CTRL' 09200000
         PRINT OFF                                                      09250000
         COPY  DFHCSADS                                                 09300000
         COPY  DFHTCTTE                                                 09350000
         COPY  DFHTCTLE                                                 09400000
         COPY  DFHTIOA                                                  09450000
         COPY  DFHTCADS                                                 09500000
         PRINT ON                                                       09550000
PARM1    DS    D                   1ST INPUT PARM - DEMF                09600000
PARM2    DS    D                   2ND INPUT PARM - ALL/LINE/CTRL/      09650000
*                                                    3270               09700000
PARM3    DS    D                   3RD INPUT PARM                       09750000
PARM4    DS    D                   4TH INPUT PARM                       09800000
PARM5    DS    D                   5TH INPUT PARM                       09850000
PARM6    DS    D                   6TH INPUT PARM                       09900000
SBACNT   DS    PL1                 COUNT OF SBA'S IN INPUT              09950000
RELREC   DS    CL3                 BDAM RELATIVE BLOCK ADDRESS          10000000
SVRELREC DS    CL3           SAVE AREA FOR LINE/CTRL RELATIVE BLOCK NO. 10050000
DBLWD    DS    D                   DOUBLEWORD WORK AREA                 10100000
DUBLWD   EQU   DBLWD                                                    10150000
FULLWD   DS    F                   FULLWORD WORK AREA                   10200000
TWALINE  DS    F             SAVE AREA FOR CICS SYMBOLIC LINE POINTER   10250000
*   THE TWA FROM HERE UP MUST REMAIN IN THAT ORDER TO MATCH TWALINE     10300000
*         WITH TWATCTID IN THE 3270 PROGRAM.                            10350000
LINEID   DS    XL6                 HARDWARE LINE ADDRESS                10400000
LINENAME DS    CL8           LINE NAME SAVE AREA FOR RECAP HEADER       10450000
CTRLID   DS    X                   HARDWARE CONTROL UNIT ADDRESS        10500000
CTRLNAME DS    XL8'00'       CTRL/CLUSTER NAME WORK AREA       @OZ39277 10550000
TERMNAME DS    XL8'00'             TERML/LOGICAL UNIT NAME WORK@OZ39277 10600000
CLUSNAME DS    XL8'00'       CTRL/CLUSTER NAME SAVE AREA       @OZ39277 10650000
NEWPARM  DS    C                   NEW-PARM SWITCH                      10700000
CTRPARM  DS    C                   COUNTER OF CHARS STORED IN PARM(X)   10750000
SAVETIOA DS    F                   SAVE AREA FOR ORIGINAL TIOA          10800000
SAVEBBSS DS    F                   SAVE POINTER TO BLK AND SLOT         10850000
TWASLOT  DS    C                   INPUT SLOT COUNT IN HEX              10900000
WRKSLOT  DS    C                   TWASLOT WORK AREA                    10950000
*                                  DISPLACEMENTS IN TIOA                11000000
SAVERCAP DS    F                   SAVEAREA FOR POINTER TO RECAP LINE   11050000
SAVEITEM DS    F                   SAVEAREA FOR POINTER TO FIRST LINE   11100000
*                                  AND CTRL DISPLAYS                    11150000
SLOTCNT  DS    C                   COUNT OF DETAIL SLOTS READ           11200000
ITEMCNT  DS    PL2                 COUNT OF OUTPUT ITEMS IN LINE        11250000
WORKCNT  DS    PL2                 ITEM WORK COUNTER                    11300000
WORK15   DS    CL15                                                     11350000
QUITSW   DS    C             USED TO STOP EDIT OF INPUT ON 3RD SBA      11400000
*                             IF 2ND SBA = L1P7 OR L6P26  ***ALSO*** XH 11450000
*                            USED AS MOD-1 OUTPUT-FULL-SWITCH        XH 11500000
*                               00 = NOT FULL   FF = OUTPUT FULL BUT XH 11550000
*     CONTINUE SCANNING DATA BASE FOR CORRECT ERROR COUNTS           XH 11600000
*********************************************************************** 11650000
MOD1TABL DS    CL64          MAX OF 32 ENTRIES FOR MOD-1 TABLE          11700000
*                              LOCAL TERM = 2-BYTES                     11750000
*                              REMOTE CU AND TERM = 2-BYTES             11800000
TBRELREC DS    CL3           SAVE AREA FOR PAGING 'BBB'                 11850000
TBSLOT   DS    C             SAVE AREA FOR PAGING 'SS'                  11900000
TBCTRL   DS    C             SAVE AREA FOR MDR CTRL UNIT                11950000
TBLINE   DS    CL6           SAVE AREA FOR LINE ADDR OF PAGE            12000000
TBARG    DS    CL2           SAVE AREA FOR TABLE ARGUMENT               12050000
TABLECNT DS    PL2           COUNT OF ENTRIES IN TABLE                  12100000
WKTBLCNT DS    PL2           WORK AREA FOR COUNT OF TABLE ENTRIES       12150000
MOD1SW   DS    X             00 = SWT OFF    FF = SWT ON                12200000
*                            IF ON, PERFORM MOD1 TABLE SCAN             12250000
SOUTLOOP DS    F             SAVE AREA FOR OUTLOOP REGISTER             12300000
*********************************************************************** 12350000
         COPY  DFHFIOA                                                  12400000
CTRLLAST DS    F                   LAST USED ADDR IN DATASET            12450000
CTRLTOTL DS    F                   TOTAL BLOCKS IN DATASET              12500000
CTRLBACK DS    F                   BACKWARD PTR IN CTRL BLK CHAIN       12550000
CTRLFWD  DS    F                   FORWARD PTR IN CTRL BLK CHAIN        12600000
CTRLENTS DS    C                   NBR ENTRIES IN THIS CTRL BLK         12650000
         DS    CL15                FOR FUTURE USE                       12700000
CTRLSLT1 DS    0C                  START OF CTRL SLOT NBR ONE.          12750000
         ORG   FIOADBA                                                  12800000
DATAPORT DS    CL6                 PORT & LIB ADDR                      12850000
DATATIME DS    CL4                 TIME BLOCK CREATED                   12900000
DATADATE DS    CL4                 DATE BLOCK CREATED                   12950000
DATAFWD  DS    CL3                 FORWARD CHAIN ADDR                   13000000
DATABACK DS    CL3                 BACKWAD CHAIN ADDR                   13050000
BLKLTH   DS    CL2                 NBR BYTES USED IN THIS BLOCK         13100000
         DS    CL10                                                     13150000
DATASLT1 DS    0C                  START OF 1ST DATA SLOT               13200000
SLOTS    DSECT           MAP OF ENTRIES IN CONTROL BLOCK                13250000
         USING SLOTS,DATAREG                                            13300000
SLOTLINE DS    CL6                CHANNEL ADDRESS(PORT OR LIB)          13350000
SLOTNBC  DS    CL2                NUMBER OF BLOCKS IN THIS CHAIN        13400000
SLOTHITS DS    CL2                TOTAL HITS ON THIS LINE               13450000
SLOTRFB  DS    CL3                RELATIVE ADDRESS FIRST BLOCK IN CHAIN 13500000
SLOTRLB  DS    CL3                RELATIVE ADDRESS LAST BLOCK IN CHAIN  13550000
SLOTLTH  EQU   *-SLOTS                                                  13600000
         ORG   SLOTS         MAP OF MDR AND OBR IN DETAIL BLOCKS        13650000
DATALTH  DS    C                   LTH OF THIS SLOT                     13700000
LINEIDA  DS    CL6                 LINE AND LIB ADDR                    13750000
ENTRYTYP DS    C                   ENTRY TYPE - MDR OR OBR              13800000
         DS    CL3                                                      13850000
MDRTYPE  DS    C                   TYPE HDWE - 03 EQUALS 3270           13900000
         DS    CL3                                                      13950000
DATE     DS    CL4                 DATE OF ERROR - 00YY0DDF             14000000
TIME     DS    CL4                 TIME OF ERROR - HHMMSSHH             14050000
         DS    CL8                                                      14100000
MDRCUA   DS    CL2                 MDR CHAN & UNIT ADDR                 14150000
MDRCTRL  DS    C                   MDR CTRL UNIT POLL ADDR              14200000
MDRTERM  DS    C                   MDR TERMIL POLL ADDR                 14250000
MDRSTATS DS    CL2                 REMOTE 3270 STATUS                   14300000
         DS    CL2                                                      14350000
OBRCCW   DS    CL8                 LAST CCW EXECUTED                    14400000
OBRCSW   DS    CL8                 CHANNEL STATUS WORD                  14450000
         DS    CL6                                                      14500000
OBRUCB   DS    C                                                        14550000
         DS    CL3                                                      14600000
OBRCUA   DS    CL2                 OBR CHAN & UNIT ADDR                 14650000
OBRCTRL  DS    C                                                        14700000
OBRTERM  DS    C                                                        14750000
         DS    CL12                                                     14800000
OBRSENSE DS    CL2                 OBR SENSE BYTES                      14850000
*********************************************************************** 14900000
BNGCDISP CSECT                                                          14950000
SBA      EQU   X'11'         SET BUFFER ADDRESS                         15000000
SF       EQU   X'1D'         START FIELD                                15050000
IC       EQU   X'13'         INSERT CURSOR                              15100000
UNA      EQU   X'40'         UNPROTECTED,NORMAL INTENSITY, ALPHAMERIC   15150000
PNA      EQU   X'60'         PROTECTED, NORMAL INTENSITY, ALPHAMERIC    15200000
PHA      EQU   X'E8'             PROTECTED, HIGH INTENSITY, ALPHAMERIC  15250000
MNP      EQU   X'61'             PROT,MODIFIED,NORMAL                   15300000
PIA      EQU   X'6D'             PROTECTED,MODIFIED,INVISIBLE,ALPHA     15350000
L1P1     EQU   X'4040'       LINE 1, POSITION 1  BUFFER ADDRESS.        15400000
L1P7     EQU   X'40C6'       LINE 1, POSITION 7  BUFFER ADDRESS.        15450000
L1P36    EQU   X'40E3'       LINE 1, POSITION 36 BUFFER ADDRESS.        15500000
L2P1     EQU   X'C150'       LINE 2, POSITION 1  BUFFER ADDRESS.        15550000
L2P4     EQU   X'C1D3'       PAGE FWD  BUFFER ADDR FOR 3277-2           15600000
L2P44    EQU   X'C17B'       PAGE BKWD BUFFER ADDR FOR 3277-2           15650000
L3P1     EQU   X'C260'       LINE 3, POSITION 1 BUFFER ADDRESS.         15700000
L3P4     EQU   X'C1D3'       LINE 3, POSITION 4 BUFFER ADDRESS.         15750000
L4P1     EQU   X'C3F0'       LINE 4, POSITION 1  BUFFER ADDRESS.        15800000
L4P4     EQU   X'C17B'       PAGE BKWD BUFFER ADDR FOR 3277-1           15850000
L6P26    EQU   X'C6E9'       LINE 6, POSITION 26 BUFFER ADDRESS.        15900000
TCTTEAR  EQU   2             POINTS TO TCTTE                            15950000
BASE1    EQU   3             BASE REGISTER ONE = 0-4095                 16000000
BASE2    EQU   4             BASE REGISTER TWO = 4096-8191              16050000
TIOABAR  EQU   5             POINTS TO TIOA                             16100000
FIOABAR  EQU   6             POINTS TO FIOA                             16150000
PARMREG  EQU   6             POINTS TO PARM AREA                        16200000
OUTREG   EQU   7             POINTS TO DATA IN TIOA AREA                16250000
OUTLOOP  EQU   8             USED FOR LOOPING THRU DATA IN TIOA AREA    16300000
MOD1REG  EQU   8             POINTS TO MOD-1 TABLE (MOD1TABL)           16350000
DATAREG  EQU   9             POINTS TO DATA IN FIOA AREA                16400000
DATALOOP EQU   10            USED FOR LOOPING THRU DATA IN FIOA AREA    16450000
TABLEREG EQU   11            POINTS TO FUNCTION/COMPANION TABLE         16500000
R11      EQU   11            PARMLIST COUNTER WORK REGISTER FOR CTRPARM 16550000
LINKREG  EQU   11            SUBROUTINE LINKAGE                         16600000
R14      EQU   14                                                       16650000
R15      EQU   15                                                       16700000
*********************************************************************** 16750000
         BALR  BASE1,0                                                  16800000
         USING *,BASE1,BASE2                                            16850000
BNGCDISP BNGHJN GO                                             @OZ29900 16900000
         LA    BASE2,2048(BASE1)                                        16950000
         LA    BASE2,2048(BASE2)                                        17000000
         L     TCTTEAR,TCAFCAAA                                         17050000
         LA    TCTTEAR,0(TCTTEAR)                                       17100000
         L     TIOABAR,TCTTEDA                                          17150000
         ZAP   SBACNT,=P'0'        SET SBA COUNTER TO ZERO.             17200000
         SR    DATAREG,DATAREG          CLEAR WORKREG          @OX22096 17250000
         LH    DATAREG,TIOATDL          GET TERMINAL DATA LEN  @OX22096 17300000
         BCTR  DATAREG,0                REDUCE BY ONE FOR EX   @OX22096 17350000
         EX    DATAREG,TRANS            DO DATA TRANSLATION    @OX22096 17400000
         LA    DATAREG,TIOADBA     POINT TO 1ST BYTE IN TIOA.           17450000
         LR    DATALOOP,DATAREG    SETUP DATA LOOP                      17500000
         AH    DATALOOP,TIOATDL                                         17550000
         XC    PARM1(48),PARM1     ZERO OUT PARM FIELDS                 17600000
         LA    PARMREG,PARM1       POINT TO PARMS.                      17650000
         LR    14,PARMREG                                               17700000
         MVI   QUITSW,X'00'        SET QUITSW OFF.                      17750000
         MVI   NEWPARM,C'1'        TURN ON 'NEW PARM' SWITCH.           17800000
         MVI   CTRPARM,X'00'       SET CHARS COUNTER IN PARM = ZERO     17850000
A160     CLI   0(DATAREG),SBA      IS THIS BYTE AN SBA?                 17900000
         BNE   A210                NO. CHECK IT FURTHER.                17950000
         CLI   QUITSW,X'FF'            QUIT SWITCH ON?                  18000000
         BE    C10                          YES.  QUIT EDIT.            18050000
         CLC   1(2,DATAREG),=AL2(L1P7)  IS 2ND SBA = LINE 1 POSN 7?     18100000
         BE    A170                              NO. CONTINUE EDIT      18150000