         PRINT OFF                                                      00050000
         MACRO                                                          00100000
&NAME    BNGHJN &LABEL,&HJN                                             00150000
         LCLA  &K                                                       00200000
         LCLC  &HJA,&HJB,&HJC                                           00250000
&HJC     SETC  'PTF NO.'                                                00300000
&K       SETA  K'&SYSPARM                                               00350000
         AIF   (&K LT 4).CODE                                           00400000
&HJA     SETC  '&SYSPARM'(1,4)                                          00450000
         AIF   (&K LT 8).CODE                                           00500000
&HJB     SETC  '&SYSPARM'(5,4)                                          00550000
         AIF   (&K LT 15).CODE                                          00600000
&HJC     SETC  '&SYSPARM'(9,7)                                          00650000
.CODE    ANOP                                                           00700000
         AIF   ('&LABEL' EQ '').NOBRNCH                                 00750000
         B     &LABEL .                 BR AROUND CONSTANTS             00800000
         SPACE 2                                                        00850000
.NOBRNCH ANOP                                                           00900000
         AIF   ('&NAME' EQ '').NOLABEL                                  00950000
         DC    C'&NAME' .              MODULE IDENTIFIER                01000000
.NOLABEL ANOP                                                           01050000
         AIF   ('&HJA' EQ '').NEXT                                      01100000
         DC    X'&HJA' .                DATE OF MODIFICATION            01150000
.NEXT    ANOP                                                           01200000
         AIF   ('HJB' EQ '').DATE                                       01250000
         AIF   ('&HJN' NE 'HJN').DATE                                   01300000
         DC    X'&HJB' .                HJN OF MODIFICATION             01350000
.DATE    ANOP                                                           01400000
         DC    C'&HJC' .                PTF LEVEL                       01450000
.NOPTF   ANOP                                                           01500000
         AIF   ('&LABEL' EQ '').NOLBL                                   01550000
         SPACE 2                                                        01600000
&LABEL   DS    0H                                                       01650000
.NOLBL   ANOP                                                           01700000
         MEND                                                           01750000
         PRINT ON                                                       01800000
*********************************************************************** 01850000
*                                                                     * 01900000
* MODULE NAME = BNGCMENU                                              * 01950000
*                                                                     * 02000000
* DESCRIPTIVE NAME = CICS DEMF MENU DISPLAY MODULE                    * 02050000
*                                                                     * 02100000
* COPYRIGHT = NONE                                                    * 02150000
*                                                                     * 02200000
* STATUS = RELEASE 1, LEVEL 1                                         * 02250000
*                                                                     * 02300000
* FUNCTION = 1) RECEIVES CONTROL FROM BNGCDISP;                       * 02350000
*            2) DISPLAYS THE FIRST MENU SCREEN THAT OFFERS A CHOICE   * 02400000
*               OF ALL, 3270, REMOT OR LOCAL DISPLAYS;                * 02450000
*            3) DISPLAYS THE SECOND MENU SCREEN THAT DESCRIBES THE    * 02500000
*               SYNTAX OF THE DEMF COMMANDS AND PARAMETERS WHICH USE  * 02550000
*               EXPLICIT PHYSICAL ADDRESSES OR SYMBOLIC NAMES;        * 02600000
*            4) RETURNS CONTROL TO CICS.                              * 02650000
*                                                                     * 02700000
* NOTES = SEE BELOW                                                   * 02750000
*                                                                     * 02800000
*    DEPENDENCIES =                                                   * 02850000
*                                                                     * 02900000
*    THE FOLLOWING ARE CICS TABLES/CONTROL BLOCKS AND THEIR LABELS    * 02950000
*    USED BY DEMF CICS MODULES (BNGCDISP,BNGC3270,BNGCLOCL,BNGCRMOT   * 03000000
*    BNGCMENU) :                                                      * 03050000
*                                                                     * 03100000
*    CICS TABLE AND                                                   * 03150000
*    CONTROL BLOCKS                  LABELS USED                      * 03200000
*    ----------------------          -----------                      * 03250000
*                                                                     * 03300000
*    COMMON SYSTEM AREA              CSATCTBA                         * 03350000
*    (CSA)                                                            * 03400000
*                                                                     * 03450000
*    TERMINAL CONTROL TABLE          TCTTEDA                          * 03500000
*    TERMINAL ENTRY (TCTTE)          TCTTETM                          * 03550000
*                                    TCTTELT                          * 03600000
*                                    TCTTETI                          * 03650000
*                                    TCTTECLT                         * 03700000
*                                    TCTTETEL                         * 03750000
*                                    TCTTETT                          * 03800000
*                                    TCTTEGU                          * 03850000
*                                    TCTTETA                          * 03900000
*                                                                     * 03950000
*    TERMINAL CONTROL TABLE          TCTLELF                          * 04000000
*    LINE ENTRY (TCTLE)              TCTLEFAA                         * 04050000
*                                    TCTLEPI                          * 04100000
*                                    TCTLEMFP                         * 04150000
*                                    TCTLEPA                          * 04200000
*                                    TCTLEDCB                         * 04250000
*                                    TCTLERLN                         * 04300000
*                                                                     * 04350000
*    TERMINAL INPUT/OUTPUT AREA      TIOADBA                          * 04400000
*    (TIOA)                          TIOATDL                          * 04450000
*                                                                     * 04500000
*    TASK CONTROL AREA               TCAFCAAA                         * 04550000
*    (TCA)                           TCAFCAA                          * 04600000
*                                    TCAPCPI                          * 04650000
*                                    TCASCSA                          * 04700000
*                                                                     * 04750000
*    FILE INPUT/OUTPUT AREA          FIOADBA                          * 04800000
*    (FIOA)                                                           * 04850000
*                                                                     * 04900000
*    RESTRICTIONS = NONE                                              * 04950000
*                                                                     * 05000000
*    REGISTER CONVENTIONS = R12 ADDRESS OF TCA                        * 05050000
*                           R13 ADDRESS OF CSA                        * 05100000
*                                                                     * 05150000
*    PATCH LABEL = NONE                                               * 05200000
*                                                                     * 05250000
* MODULE TYPE = CICS DISPLAY                                          * 05300000
*                                                                     * 05350000
*    PROCESSOR = ASSEMBLER H                                          * 05400000
*                                                                     * 05450000
*    MODULE SIZE = 2176 DECIMAL BYTES                                 * 05500000
*                                                                     * 05550000
*    ATTRIBUTES = QUASI-REENTRANT                                     * 05600000
*                                                                     * 05650000
* ENTRY POINT = BNGCMENU                                              * 05700000
*                                                                     * 05750000
*    PURPOSE = SEE FUNCTION                                           * 05800000
*                                                                     * 05850000
*    LINKAGE = R14 LOADED WITH THE RETURN ADDR (USED BY SUBROUTINE)   * 05900000
*                                                                     * 05950000
* INPUT = PARAM LIST ITEMS USED ARE : INPUT TIOA AT BEGINNING OF PGM  * 06000000
*                                                                     * 06050000
* OUTPUT = PARAM LIST ITEMS USED ARE : OUTPUT TIOA AT LABEL - C10     * 06100000
*                                                                     * 06150000
* EXIT-NORMAL = REGISTER 15 RETURN CODE RETURNED TO CALLER :          * 06200000
*               00 - OPERATION PERFORMED AS REQUESTED                 * 06250000
*                                                                     * 06300000
* EXIT-ERROR  = NONE                                                  * 06350000
*                                                                     * 06400000
* EXTERNAL REFERENCE = NONE                                           * 06450000
*                                                                     * 06500000
*    ROUTINES = NONE                                                  * 06550000
*                                                                     * 06600000
*    DATA AREAS = NONE                                                * 06650000
*                                                                     * 06700000
*    CONTROL BLOCK = DFHCSADS, DFHTCTTE, DFHTCTLE, DFHTIOA, DFHTCADS  * 06750000
*                                                                     * 06800000
* TABLES = NONE                                                       * 06850000
*                                                                     * 06900000
* MACROS = DFHSC, DFHTC, DFHPC                                        * 06950000
*                                                                     * 07000000
* CHANGE ACTIVITIES AS FOLLOWS:                                       * 07050000
* CHANGE 01   11/15/77  PROLOGUE ADDED                                * 07100000
*DUMMY APAR TO CORRECT PREREQ STRINGS ON PREVIOUS PTF'S        @OZ36693 07150000
*                                                                     * 07200000
*********************************************************************** 07250000
         TITLE 'DISPLAY EXCEPTION MONITORING FACILITY MENU PROGRAM'     07300000
         PRINT OFF                                                      07350000
         COPY  DFHCSADS                                                 07400000
         COPY  DFHTCTTE                                                 07450000
         COPY  DFHTCTLE                                                 07500000
         COPY  DFHTIOA                                                  07550000
         COPY  DFHTCADS                                                 07600000
         PRINT ON                                                       07650000
PARM1    DS    D                   1ST INPUT PARM - DEMF                07700000
PARM2    DS    D                   2ND INPUT PARM - MENU                07750000
PARM3    DS    D                   3RD INPUT PARM - X                   07800000
*********************************************************************** 07850000
BNGCMENU CSECT                                                          07900000
SBA      EQU   X'11'               SET BUFFER ADDRESS                   07950000
SF       EQU   X'1D'               START FIELD                          08000000
IC       EQU   X'13'               INSERT CURSOR                        08050000
PNA      EQU   X'60'               PROTECTED,NORMAL,ALPHAMERIC          08100000
PHA      EQU   X'E8'               PROTECTED,HIGH INTENSITY,ALPHAMERIC  08150000
UNA      EQU   X'40'               UNPROT,NORMAL,ALPHAMERIC             08200000
MNP      EQU   X'61'               MODIFIED,NORMAL,PROTECTED,ALPHAMERIC 08250000
L1P1     EQU   X'4040'             LINE 1 POSITION 1                    08300000
L1P35    EQU   X'40E2'                                                  08350000
L1P36    EQU   X'40E3'                                                  08400000
L2P1LG   EQU   X'C150'             LINE 2 POSITION 1 -LARGE SCREEN      08450000
L2P29SM  EQU   X'C1C4'             LINE 2 POSITION 29-SMALL SCREEN      08500000
L2P70    EQU   X'C2D5'                                                  08550000
L3P1SM   EQU   X'C150'             LINE 3 POSITION 1 -SMALL SCREEN      08600000
L4P1SM   EQU   X'C1F8'             LINE 4 POSITION 1 -SMALL SCREEN      08650000
L4P2SM   EQU   X'C1F9'                                                  08700000
L4P4SM   EQU   X'C17B'                                                  08750000
L4P15SM  EQU   X'C2C6'                                                  08800000
L5P1SM   EQU   X'C260'                                                  08850000
L5P2SM   EQU   X'C261'                                                  08900000
L5P4SM   EQU   X'C2E3'                                                  08950000
L5P15SM  EQU   X'C26E'                                                  09000000
L6P1SM   EQU   X'C3C8'                                                  09050000
L6P2SM   EQU   X'C3C9'                                                  09100000
L6P4SM   EQU   X'C34B'                                                  09150000
L6P15SM  EQU   X'C3D6'                                                  09200000
L7P16SM  EQU   X'C37F'                                                  09250000
L8P1SM   EQU   X'C4D8'                                                  09300000
L8P2SM   EQU   X'C4D9'                                                  09350000
L8P4SM   EQU   X'C45B'                                                  09400000
L8P15SM  EQU   X'C4E6'                                                  09450000
L9P16SM  EQU   X'C54F'                                                  09500000
L10P1SM  EQU   X'C5E8'                                                  09550000
L10P2SM  EQU   X'C5E9'                                                  09600000
L10P3SM  EQU   X'C56A'                                                  09650000
L10P4SM  EQU   X'C56B'                                                  09700000
L11P8SM  EQU   X'C6D7'                                                  09750000
L12P8SM  EQU   X'C67F'                                                  09800000
L3P3LG   EQU   X'C2E2'                                                  09850000
L3P25LG  EQU   X'C2F8'                                                  09900000
L4P1LG   EQU   X'C3F0'                                                  09950000
L4P23LG  EQU   X'C4C6'                                                  10000000
L5P1LG   EQU   X'C540'                                                  10050000
L5P23LG  EQU   X'C5D6'                                                  10100000
L6P1LG   EQU   X'C650'                                                  10150000
L6P20LG  EQU   X'C6E3'                                                  10200000
L6P23LG  EQU   X'C6E6'                                                  10250000
L7P1LG   EQU   X'C760'                                                  10300000
L7P21LG  EQU   X'C7F4'                                                  10350000
L7P23LG  EQU   X'C7F6'                                                  10400000
L8P1LG   EQU   X'C8F0'                                                  10450000
L8P21LG  EQU   X'C9C4'                                                  10500000
L8P23LG  EQU   X'C9C6'                                                  10550000
L9P1LG   EQU   X'4A40'                                                  10600000
L9P21LG  EQU   X'4AD4'                                                  10650000
L9P23LG  EQU   X'4AD6'                                                  10700000
L10P21LG EQU   X'4BE4'                                                  10750000
L10P23LG EQU   X'4BE6'                                                  10800000
L12P1LG  EQU   X'4DF0'                                                  10850000
*                                                                       10900000
L6P56    EQU   X'C7C7'                                                  10950000
L6P61    EQU   X'C74C'                                                  11000000
L7P50    EQU   X'C8D1'                                                  11050000
L9P22LG  EQU   X'4AD5'                                                  11100000
L9P24LG  EQU   X'4AD7'                                                  11150000
L9P35LG  EQU   X'4AE2'                                                  11200000
L10P22LG EQU   X'4BE5'                                                  11250000
L10P24LG EQU   X'4BE7'                                                  11300000
L10P35LG EQU   X'4BF2'                                                  11350000
L11P21LG EQU   X'4CF4'                                                  11400000
L11P22LG EQU   X'4CF5'                                                  11450000
L11P24LG EQU   X'4CF7'                                                  11500000
L11P35LG EQU   X'4DC2'                                                  11550000
L12P36LG EQU   X'4ED3'                                                  11600000
L13P21   EQU   X'4FD4'                                                  11650000
L13P22   EQU   X'4FD5'                                                  11700000
L13P24   EQU   X'4FD7'                                                  11750000
L13P35   EQU   X'4FE2'                                                  11800000
L14P36   EQU   X'50F3'                                                  11850000
L15P21   EQU   X'D1F4'                                                  11900000
L15P22   EQU   X'D1F5'                                                  11950000
L15P23   EQU   X'D1F6'                                                  12000000
L15P24   EQU   X'D1F7'                                                  12050000
L16P28   EQU   X'D34B'                                                  12100000
L17P28   EQU   X'D45B'                                                  12150000
BASE1    EQU   3             BASE REGISTER ONE = 0-4095                 12200000
BASE2    EQU   4             BASE REGISTER TWO = 4096-8191              12250000
TCTTEAR  EQU   5             POINTS TO TCTTE                            12300000
TIOABAR  EQU   6             POINTS TO TIOA                             12350000
*********************************************************************** 12400000
         BALR  BASE1,0                                                  12450000
         USING *,BASE1,BASE2                                            12500000
         LA    BASE2,2048(BASE1)                                        12550000
         LA    BASE2,2048(BASE2)                                        12600000
BNGCMENU BNGHJN GO                                             @OZ36693 12650000
         L     TCTTEAR,TCAFCAAA                                         12700000
         L     TIOABAR,TCTTEDA                                          12750000
*********************************************************************** 12800000
         CLC   TIOADBA+15(2),=X'D1F5'    (L15P22) A PAGE 2 REQUEST-LG?  12850000
         BE    B10                        YES.                          12900000
A10      CLC   TIOADBA+15(2),=X'C5E9'    (L10P2SM)A PAGE 2 REQUEST-SM?  12950000
         BNE   C10                        NO.                           13000000
B10      MVC   PARM1(4),=C'PAGE'                                        13050000
*********************************************************************** 13100000
C10      DFHSC TYPE=GETMAIN,CLASS=TERM,NUMBYTE=2000                     13150000
         L     TCTTEAR,TCAFCAAA                                         13200000
         L     TIOABAR,TCASCSA                                          13250000
         ST    TIOABAR,TCTTEDA                                          13300000
         CLI   TCTTETM,C'1'        IS THIS A SMALL SCREEN?              13350000
         BE    SMALL               YES. USE SMALL MENU.                 13400000
         CLC   PARM1(4),=C'PAGE'   IS THIS A PAGE 2 REQUEST?            13450000
         BE    PAGE2LG             YES.                                 13500000
         LA    1,LG1LTH            POINT TO LARGE 1 MENU                13550000
         LA    14,LG1MSG                                                13600000
EXIT     DS    0H                                                       13650000
         LA    0,TIOATDL                                                13700000
         LR    15,1                                                     13750000
         MVCL  0,14                                                     13800000
         DFHTC TYPE=(WRITE,ERASE)                                       13850000
         DFHPC TYPE=RETURN                                              13900000
SMALL    CLC   PARM1(4),=C'PAGE'   IS THIS A PAGE 2 REQUEST?            13950000
         BE    PAGE2SM            YES.                                  14000000
         LA    1,SM1LTH         POINT TO SMALL 1 MENU                   14050000
         LA    14,SM1MSG                                                14100000
         B     EXIT                                                     14150000
PAGE2SM  LA    1,SM2LTH         POINT TO SMALL 2 MENU                   14200000
         LA    14,SM2MSG                                                14250000
         B     EXIT                                                     14300000
PAGE2LG  LA    1,LG2LTH         POINT TO LARGE 2 MENU                   14350000
         LA    14,LG2MSG                                                14400000
         B     EXIT                                                     14450000
LG1MSG   DC    AL2(LG1LTH-4),X'0000',AL1(SBA),AL2(L6P20LG),AL1(SF,MNP)  14500000
         DC    C'DEMF',AL1(SF,UNA),AL1(SBA),AL2(L6P56),AL1(SF,MNP)      14550000
         DC    C'MENU',AL1(SBA),AL2(L6P61),AL1(SF,PNA)                  14600000
 DC AL1(SBA),AL2(L7P21LG),C'CICS VERSION'                               14650000
 DC AL1(SBA),AL2(L7P50),C'PAGE 1 OF 2'                                  14700000
 DC AL1(SBA),AL2(L8P21LG),C'TYPE IN COMMAND OR X IN ? TO DISPLAY:'      14750000
 DC AL1(SBA),AL2(L9P21LG),C'(',AL1(SBA),AL2(L9P22LG)                    14800000
 DC AL1(SF,UNA,IC),C'?',AL1(SBA),AL2(L9P24LG),AL1(SF,PNA),C')ALL'       14850000
 DC AL1(SBA),AL2(L9P35LG),C'RECAP OF ERRS ON ALL LINES'                 14900000
 DC AL1(SBA),AL2(L10P21LG),C'(',AL1(SBA),AL2(L10P22LG),AL1(SF,UNA),C'?' 14950000
 DC AL1(SBA),AL2(L10P24LG),AL1(SF,PNA),C')3270'                         15000000
 DC AL1(SBA),AL2(L10P35LG),C'ERR DATA ON YOUR TERMINAL'                 15050000
 DC AL1(SBA),AL2(L11P21LG),C'(',AL1(SBA),AL2(L11P22LG),AL1(SF,UNA),C'?' 15100000
 DC AL1(SBA),AL2(L11P24LG),AL1(SF,PNA),C')REMOTE'                       15150000
 DC AL1(SBA),AL2(L11P35LG),C'TEXT OF REMOTE 327X STATUS'                15200000
 DC AL1(SBA),AL2(L12P36LG),C'AND SENSE COMBINATIONS'                    15250000
 DC AL1(SBA),AL2(L13P21),C'(',AL1(SBA),AL2(L13P22),AL1(SF,UNA),C'?'     15300000
 DC AL1(SBA),AL2(L13P24),AL1(SF,PNA),C')LOCAL'                          15350000
 DC AL1(SBA),AL2(L13P35),C'TEXT OF LOCAL 327X STATUS'                   15400000
 DC AL1(SBA),AL2(L14P36),C'AND SENSE COMBINATIONS'                      15450000
 DC AL1(SBA),AL2(L15P21),AL1(SF,MNP),C'DEPRESS ENTER KEY FOR PAGE 2'    15500000
 DC C'--CONTAINS'                                                       15550000
 DC AL1(SBA),AL2(L16P28),C'COMMAND FORMATS USED TO DIRECTLY'            15600000
 DC AL1(SBA),AL2(L17P28),C'ADDRESS A LINE, CTRL UNIT,OR TERML'          15650000
LG1LTH   EQU   *-LG1MSG                                                 15700000
LG2MSG   DC    AL2(LG2LTH-4),X'0000',AL1(SBA),AL2(L1P1),AL1(SF,MNP)     15750000
         DC    C'DEMF',AL1(SF,UNA,IC),AL1(SBA),AL2(L1P35),AL1(SF,MNP)   15800000
         DC    C'MENU',AL1(SF,PNA)                                      15850000
 DC AL1(SBA),AL2(L2P1LG),C'CICS VERSION'                                15900000
 DC AL1(SBA),AL2(L2P70),C'PAGE 2 OF 2'                                  15950000
 DC AL1(SBA),AL2(L3P3LG),C'KEY IN:'                                     16000000
 DC AL1(SBA),AL2(L3P25LG),C'YOU WILL SEE:'                              16050000
 DC AL1(SBA),AL2(L4P1LG),C'DEMF LINE LLL',AL1(SBA),AL2(L4P23LG)         16100000
 DC C'ERRS BY CONTROL UNIT ON SELECTED LINE LLL'                        16150000
 DC AL1(SBA),AL2(L5P1LG),C'DEMF CTRL LLL CC',AL1(SBA),AL2(L5P23LG)      16200000
 DC C'ERRS BY TERMINAL ON REMOTE CONTROL UNIT LLL CC'                   16250000
 DC AL1(SBA),AL2(L6P1LG),C'DEMF CTRL CCC',AL1(SBA),AL2(L6P23LG)         16300000
 DC C'ERRS BY TERMINAL ON LOCAL CONTROL UNIT CCC'                       16350000
 DC AL1(SBA),AL2(L7P1LG),C'DEMF 3270 LLL CC TT',AL1(SBA),AL2(L7P23LG)   16400000
 DC C'ERR DESCRIPTIVE DATA OF REMOTE TERMINAL LLL CC TT'                16450000
 DC AL1(SBA),AL2(L8P1LG),C'DEMF 3270 TTT',AL1(SBA),AL2(L8P23LG)         16500000
 DC C'ERR DESCRIPTIVE DATA OF LOCAL TERMINAL TTT'                       16550000
 DC AL1(SBA),AL2(L9P1LG),C'DEMF 3270 SYMBNAME',AL1(SBA),AL2(L9P23LG)    16600000
 DC C'ERR DESCRIPTIVE DATA OF LOCAL OR REMOTE TERMINAL'                 16650000
 DC AL1(SBA),AL2(L10P23LG),C'WITH CICS NAME',AL1(SBA),AL2(L12P1LG)      16700000
 DC C'TYPE X IN PLACE OF ? ON DISPLAYS TO PAGE OR VIEW LOWER LEVEL '    16750000
 DC C'OF DETAIL'                                                        16800000
LG2LTH   EQU   *-LG2MSG                                                 16850000
SM1MSG   DC    AL2(SM1LTH-4),X'0000',AL1(SBA),AL2(L1P1),AL1(SF,MNP)     16900000
         DC    C'DEMF',AL1(SF,UNA),AL1(SBA),AL2(L1P35),AL1(SF,MNP)      16950000
         DC    C'MENU',AL1(SF,PNA),C'CICS VERSION'                      17000000
 DC AL1(SBA),AL2(L2P29SM),C'PAGE 1 OF 2'                                17050000
 DC AL1(SBA),AL2(L3P1SM),C'TYPE IN COMMAND OR X IN ? TO DISPLAY:'       17100000
 DC AL1(SBA),AL2(L4P1SM),C'(',AL1(SBA),AL2(L4P2SM),AL1(SF,UNA,IC),C'?'  17150000
 DC AL1(SBA),AL2(L4P4SM),AL1(SF,PNA),C')ALL'                            17200000
 DC AL1(SBA),AL2(L4P15SM),C'RECAP OF ERRS ON ALL LINES'                 17250000
 DC AL1(SBA),AL2(L5P1SM),C'(',AL1(SBA),AL2(L5P2SM),AL1(SF,UNA),C'?'     17300000
 DC AL1(SBA),AL2(L5P4SM),AL1(SF,PNA),C')3270'                           17350000
 DC AL1(SBA),AL2(L5P15SM),C'ERR DATA ON YOUR TERMINAL'                  17400000
 DC AL1(SBA),AL2(L6P1SM),C'(',AL1(SBA),AL2(L6P2SM),AL1(SF,UNA),C'?'     17450000
 DC AL1(SBA),AL2(L6P4SM),AL1(SF,PNA),C')REMOTE'                         17500000
 DC AL1(SBA),AL2(L6P15SM),C'TEXT OF REMOTE 327X STATUS'                 17550000
 DC AL1(SBA),AL2(L7P16SM),C'AND SENSE COMBINATIONS'                     17600000
 DC AL1(SBA),AL2(L8P1SM),C'(',AL1(SBA),AL2(L8P2SM),AL1(SF,UNA),C'?'     17650000
 DC AL1(SBA),AL2(L8P4SM),AL1(SF,PNA),C')LOCAL'                          17700000
 DC AL1(SBA),AL2(L8P15SM),C'TEXT OF LOCAL 327X STATUS'                  17750000
 DC AL1(SBA),AL2(L9P16SM),C'AND SENSE COMBINATIONS'                     17800000
 DC AL1(SBA),AL2(L10P1SM),AL1(SF,MNP),C'DEPRESS ENTER KEY FOR PAGE 2'   17850000
 DC C'--CONTAINS'                                                       17900000
 DC AL1(SBA),AL2(L11P8SM),C'COMMAND FORMATS USED TO DIRECTLY'           17950000
 DC AL1(SBA),AL2(L12P8SM),C'ADDRESS A LINE, CTRL UNIT,OR TERM'          18000000
SM1LTH   EQU   *-SM1MSG                                                 18050000
SM2MSG   DC    AL2(SM2LTH-4),X'0000',AL1(SBA),AL2(L1P1),AL1(SF,MNP)     18100000
         DC    C'DEMF',AL1(SF,UNA,IC),AL1(SBA),AL2(L1P35),AL1(SF,MNP)   18150000
         DC    C'MENU',AL1(SF,PNA)                                      18200000
         DC    CL40'CICS VERSION                PAGE 2 OF 2'            18250000