         MACRO                                                          00020000
&NAME    BSP   &DCB,&DUMMY=                                             00040017
         AIF   ('&DCB' EQ '').E1                                        00060000
&NAME    IHBINNRA &DCB                                                  00080000
         SVC   69                                ISSUE BSP SVC          00100000
         MEXIT                                                          00120000
.E1      IHBERMAC 6                     DCB OPERAND MISSING             00140018
         MEND                                                           00160000
