         MACRO                                                          00800019
&NAME    BUILDRCD   &POOL,&NO,&LTH,&REC,&RECL,&MF=I                     01600019
         LCLB  &NOGO                                                    01650021
         LCLC  &PAREN,&CHAR                                             02400019
.*                                                                      02410021
.*         RELEASE 22 DELETIONS/CHANGES                                 02500021
.*         RELEASE 21 DELETIONS/CHANGES                                 02550021
.*    040000-144000,160000-184000,200000-216000,232000,272000-   M1754  02600021
.*    280000,296000,320000,352000-384000,400000.416000.432000,   M1754  02650021
.*    464000,480000-496000,576000,600000,624000-648000,672000-   M1754  02700021
.*    712000,728000-736000,760000-768000,784000-929000           M1754  02750021
.*         RELEASE 20 DELETIONS/CHANGES                                 02760021
.*                                                                      02800021
         AIF   ('&MF(1)' EQ 'E').EXEC                                   03200019
         AIF   ('&MF' EQ 'L').LIST                               M1754  03250021
         AIF   ('&MF' EQ 'I').T2                                 M1754  03300021
         IHBERMAC   35,&MF,&MF          INVALID MACRO FORM       M1754  03400021
         AGO   .TERM                                             M1754  03450021
.T2      AIF   ('&POOL' NE '').T3                                M1754  04000021
&NOGO    SETB  1                                                 M1754  04050021
         IHBERMAC   02,009              BUF POOL ADR NOT SPEC.   M1754  04100021
.T3      AIF   ('&NO' NE '').T4                                  M1754  04800021
&NOGO    SETB  1                                                 M1754  04850021
         IHBERMAC   03,009              BUF NO. NOT SPECIFIED    M1754  04900021
.T4      AIF   ('&LTH' NE '').T5                                 M1754  05600021
&NOGO    SETB  1                                                 M1754  05650021
         IHBERMAC   04,009              REC LENGTH NOT SPECIFIED M1754  05700021
.T5      AIF   ('&REC' NE '').STAND                              M1754  06400021
         IHBERMAC   05,009              REC AREA NOT SPECIFIED   M1754  06500021
         AGO   .TERM                                             M1754  06550021
.LIST    AIF   ('&POOL' EQ '&POOL(1)').LT3 BUF POOL A SUBLIST    M1754  07350021
&NOGO    SETB  1                        YES. INVALID OPERAND     M1754  07400021
         IHBERMAC   36,,&POOL           BUF POOL ADR INVALID     M1754  07450021
.LT3     AIF   ('&NO' EQ '&NO(1)').LT4  BUF NO A SUBLIST         M1754  07500021
&NOGO    SETB  1                        YES. INVALID OPERAND     M1754  07550021
         IHBERMAC   37,,&NO             BUF NO. INVALID          M1754  07600021
.LT4     AIF   ('&LTH' EQ '&LTH(1)').LT5 BUF LENGTH A SUB LIST   M1754  07650021
&NOGO    SETB  1                        YES. BUF LENGTH INVALID  M1754  07700021
         IHBERMAC   38,,&LTH            REC LENGTH INVALID       M1754  07750021
.LT5     AIF   ('&REC' EQ '&REC(1)').LT6 REC ADR A SUB LIST      M1754  07800021
&NOGO    SETB  1                        YES. REC ADR INVALID     M1754  07850021
         IHBERMAC   39,,&REC            REC AREA INVALID OPERAND M1754  07900021
.LT6     AIF   ('&RECL' EQ '&RECL(1)').LT7 REC LEN A SUB LIST    M1754  07950021
&NOGO    SETB  1                        YES. REC LEN INVALID     M1754  07960021
         IHBERMAC 44,,&RECL             REC LEN INVALID OPERAND  M1754  07970021
.LT7     AIF   (&NOGO EQ 1).TERM                                 M1754  07980021
&NAME    DS    0F                                                       08000021
         AGO   .A1                                                      08800019
.STAND   AIF   (&NOGO EQ 1).TERM                                 M1754  08850021
         CNOP  0,4                                                      09600021
         AIF   ('&RECL' EQ '').SHORT                             M1754  10400021
&NAME    BAL   1,*+20                   BRANCH AROUND PARAMETER LIST    11200021
         AGO   .A1                                                      12000019
.SHORT   ANOP                                                    M1754  12050021
&NAME    BAL   1,*+16                   BRANCH AROUND PARAMETER LIST    12800021
.A1      AIF   ('&POOL' EQ '').A                                 M1754  13600021
         AIF   ('&POOL' NE '&POOL(1)').A                         M1754  13650021
         DC    A(&POOL)                 ADDRESS OF BUFFER POOL          14400021
         AGO   .B                                                       15200019
.A       DC    A(0)                     ADDRESS OF BUFFER POOL          16800021
.B       AIF   ('&NO' EQ '').C                                   M1754  17600021
         AIF   ('&NO' NE '&NO(1)').C                             M1754  17650021
         DC    AL2(&NO)                 NUMBER OF BUFFERS               18400021
         AGO   .D                                                       19200019
.C       DC    AL2(0)                   NUMBER OF BUFFERS               20000021
.D       AIF   ('&LTH' EQ '').E                                  M1754  20800021
         AIF   ('&LTH' NE '&LTH(1)').E                           M1754  20850021
         DC    AL2(&LTH)                LENGTH OF BUFFERS               21600021
         AGO   .F                                                       22400019
.E       DC    AL2(0)                   LENGTH OF BUFFERS               23200021
.F       AIF   ('&RECL' EQ '').G                                        24000019
         DC    AL1(0)                   ALIGNMENT FIELD                 24800019
         AGO   .H                                                       25600019
.G       DC    AL1(128)                 END OF PARAMETER LIST FLAG      26400019
.H       AIF   ('&REC' EQ '').I                                  M1754  27200021
         AIF   ('&REC' NE '&REC(1)').I                           M1754  27250021
         DC    AL3(&REC)                ADDRESS OF RECORD AREA          28000021
         AGO   .J                                                       28800019
.I       DC    AL3(0)                   ADDRESS OF RECORD AREA          29600021
.J       AIF   ('&RECL' EQ '').STORE                                    30400019
         DC    AL1(128)                 END OF PARAMETER LIST FLAG      31200019
         AIF   ('&RECL' EQ '&RECL(1)').K                         M1754  32000021
         DC    AL3(0)                   LENGTH OF RECORD AREA           32800019
         AGO   .STORE                                                   33600019
.K       DC    AL3(&RECL)               LENGTH OF RECORD AREA           34400019
.STORE   AIF   ('&MF' EQ 'I').L                                  M1754  35200021
         MEXIT                                                          35250021
.L       AIF   ('&POOL' EQ '&POOL(1)').M                         M1754  37600021
         ST    &POOL(1),0(0,1)          MOVE BUF POOL ADDR INTO LIST    38400021
.M       AIF   ('&NO' EQ '&NO(1)').N                                    39200019
         STH   &NO(1),4(0,1)            MOVE BUF NUMBER INTO LIST       40000021
.N       AIF   ('&LTH' EQ '&LTH(1)').O                                  40800019
         STH   &LTH(1),6(0,1)           MOVE BUF POOL LENGTH INTO LIST  41600021
.O       AIF   ('&REC' EQ '&REC(1)').P                                  42400019
         ST    &REC(1),8(0,1)           MOVE REC AREA ADDR INTO LIST    43200021
         AIF   ('&RECL' NE '').P                                        44000019
         OI    8(1),X'80'               TURN ON END OF PARM LIST FLAG   44800019
.P       AIF   ('&RECL' EQ '&RECL(1)').Q                                45600019
         ST    &RECL(1),12(0,1)         MOVE REC AREA LENGTH INTO LIST  46400021
         OI    12(1),X'80'              TURN ON END OF PARM LIST FLAG   47200019
.Q       LINK  EP=IGG019B0              LINK TO BUILDRCD ROUTINE M1754  48000021
         MEXIT                                                          48800019
.EXEC    AIF   ('&NAME' EQ '').NONAME                            M1754  49600021
&NAME    DS    0H                                                       49650021
.NONAME  ANOP                                                    M1754  49700021
&CHAR    SETC  '&MF(2)'                                                 50400019
&PAREN   SETC  '&CHAR'(1,1)                                             51200019
         AIF   ('&PAREN' EQ '(').R                                      52000019
         LA    1,&MF(2)                 LOAD PARM LIST ADDR INTO REG 1  52800019
         AGO   .TEST                                                    53600019
.R       AIF   ('&MF(2)' EQ '(1)').TEST                                 54400019
         LR    1,&MF(2)                 LOAD PARM LIST ADDR INTO REG 1  55200019
.TEST    AIF   ('&POOL' EQ '').CON1                                     56000019
         AIF   ('&POOL' EQ '&POOL(1)').NUMB                             56800019
         ST    &POOL(1),0(0,1)          MOVE BUF POOL ADDR INTO LIST    57600021
         AGO   .CON1                                                    58400019
.NUMB    LA    0,&POOL                                                  59200019
         ST    0,0(0,1)                 MOVE BUF POOL ADDR INTO LIST    60000021
.CON1    AIF   ('&NO' EQ '').CON2                                       60800019
         AIF   ('&NO' EQ '&NO(1)').NUMC                                 61600019
         STH   &NO(1),4(0,1)            MOVE BUF NUMBER INTO LIST       62400021
         AGO   .CON2                                                    63200019
.USEDC   B     *+6                      BRANCH AROUND VALUE             63250021
         DC    AL2(&NO)                 NUMBER OF BUFFERS               63300021
         MVC   4(2,1),*-2               MOVE BUF NUMBER INTO LIST       63350021
         AGO   .CON2                                             M1754  63400021
.NUMC    AIF   (T'&NO NE 'N').USEDC                              M1754  63450021
         AIF   (&NO GT 4095).USEDC                               M1754  63500021
         LA    0,&NO                    LOAD BUF NUMBER                 64000021
         STH   0,4(0,1)                 MOVE BUF NUMBER INTO LIST       64800021
.CON2    AIF   ('&LTH' EQ '').CON3                                      65600019
         AIF   ('&LTH' EQ '&LTH(1)').NUMD                               66400019
         STH   &LTH(1),6(0,1)           MOVE BUF POOL LENGTH INTO LIST  67200021
         AGO   .CON3                                                    68000019
.USEDCL  B     *+6                      BRANCH AROUND VALUE             68050021
         DC    AL2(&LTH)                BUFFER POOL LENGTH              68100021
         MVC   6(2,1),*-2               MOVE BUF POOL LENGTH INTO LIST  68150021
         AGO   .CON3                                             M1754  68200021
.NUMD    AIF   (T'&LTH NE 'N').USEDCL                            M1754  68250021
         AIF   (&LTH GT 4095).USEDCL                             M1754  68300021
         LA    0,&LTH                   LOAD BUF POOL LENGTH            68800021
         STH   0,6(0,1)                 MOVE BUF POOL LENGTH INTO LIST  69600021
.CON3    AIF   ('&REC' EQ '').CON4                                      70400019
         IC    0,8(0,1)                 SAVE FLAG FIELD                 71200021
         AIF   ('&REC' EQ '&REC(1)').NUME                               72000019
         ST    &REC(1),8(0,1)           MOVE REC AREA ADDR INTO LIST    72800021
         STC   0,8(0,1)                 RESTORE FLAG FIELD              73600021
         AGO   .CON4                                                    74400019
.NUME    LA    15,&REC                  LOAD REC AREA ADDR              75200019
         ST    15,8(0,1)                MOVE REC AREA ADDR INTO LIST    76000021
         STC   0,8(0,1)                 RESTORE FLAG FIELD              76800021
.CON4    AIF   ('&RECL' EQ '').Q                                        77600019
         AIF   ('&RECL' EQ '&RECL(1)').NUMF                             79200019
         IC    0,12(0,1)                SAVE FLAG FIELD                 79250021
         ST    &RECL(1),12(0,1)         MOVE REC LENGTH INTO LIST       80000021
         STC   0,12(0,1)                RESTORE FLAG FIELD              80800021
         AGO   .Q                                                       81600019
.USEDCR  B     *+8                      BRANCH AROUND VALUE             81650021
         DC    AL4(&RECL)               RECORD LENGTH                   81700021
         MVC   13(3,1),*-3              MOVE RECORD LENGTH INTO LIST    81750021
         AGO   .Q                                                M1754  81850021
.NUMF    AIF   (T'&RECL NE 'N').USEDCR                           M1754  81900021
         AIF   (&RECL GT 4095).USEDCR                            M1754  81950021
         IC    0,12(0,1)                SAVE FLAG FIELD                 82000021
         LA    15,&RECL                 LOAD RECORD LENGTH              82400021
         ST    15,12(0,1)               MOVE REC LENGTH INTO LIST       83200021
         STC   0,12(0,1)                RESTORE FLAG FIELD              84000021
         AGO   .Q                                                       84800019
.TERM    AIF   ('&NAME' EQ '').END                               M1754  84850021
&NAME    DS    0H                                                       84900021
.END     MEND                                                           92800021
