          MACRO                                                         00050002
&NAME    CALLRTM &TYPE=,&COMPCOD=,&ASID=,&TCB=0,&DUMP=YES,&STEP=NO,    C00100002
               &DUMPOPT=,&CCA=                                          00150002
         LCLA  &CTR,&CTRLNK,&CTRACR                                     00210002
         LCLB  &B(17)                                                   00250002
&NAME    DS    0H                                                       00300002
&B(1)    SETB  ('&DUMP' NE 'NO')                                        00400002
&B(2)    SETB  ('&STEP' EQ 'YES')                                       00450002
&B(3)    SETB  ('&DUMPOPT' NE '')                                       00500002
&B(4)    SETB  ('&COMPCOD' EQ '')                                       00550002
&B(5)    SETB  ('&ASID' NE '')                                          00600002
&B(6)    SETB  ('&TYPE' EQ 'DATERR')                                    00650002
&B(7)    SETB  ('&TYPE' EQ 'RESTART')                                   00700002
&B(8)    SETB  ('&TYPE' EQ 'MACHCK')                                    00750002
&B(9)    SETB  ('&TYPE' EQ 'SVCERR')                                    00800002
&B(10)   SETB  ('&TYPE' EQ 'PGIOERR')                                   00850002
&B(11)   SETB  ('&TYPE' EQ 'ABTERM' AND '&ASID' EQ '')                  00900002
&B(12)   SETB  ('&TYPE' EQ 'MEMTERM')                                   00950002
&B(13)   SETB  ('&TYPE' EQ 'PROGCK')                                    00960002
&B(14)   SETB  ('&TYPE' EQ 'ACR')                                       00970002
&B(15)   SETB  ('&TYPE' EQ 'ACRDISP')                                   00980002
&B(16)   SETB  ('&TYPE' EQ 'ACRLM')                                     00990002
&B(17)   SETB  ('&TYPE' EQ 'ABTERM' AND '&ASID' NE '')                  00992002
&CTRLNK  SETA  4+4*&B(6)+8*&B(7)+12*&B(8)+16*&B(9)+20*&B(10)+24*&B(11)+C01000002
               28*&B(12)+32*&B(13)+36*&B(14)+36*&B(15)+36*&B(16)+40*&B(C01050002
               17)                                                      01060002
&CTRACR  SETA  8*&B(14)+2*&B(15)+4*&B(16)                               01070002
         AIF   (&CTRLNK EQ 4).ERR1                                      01100002
         AIF   ('&TYPE' EQ 'MACHCK').LINKAGE                            01152002
         AIF   ('&TYPE' EQ 'ACR').LINKAGE                               01154002
         AIF   ('&TYPE' EQ 'ACRDISP').LINKAGE                           01154402
         AIF   ('&TYPE' EQ 'ACRLM').ACRLM                               01154802
         AIF   ('&TYPE' EQ 'ABTERM' AND &B(4)).ERR2                     01156002
         AIF   ('&TYPE' EQ 'MEMTERM' AND &B(4)).ERR2                    01160002
         AIF   ('&DUMP' NE 'YES' AND '&DUMP' NE 'NO').ERR8              01170002
.STPCK   AIF   ('&STEP' NE 'YES' AND '&STEP' NE 'NO').ERR9              01180002
.STPCTN  ANOP                                                           01190002
&CTR     SETA  128*&B(1)+64*&B(2)+32*&B(3)+16*&B(4)+8*&B(5)             01200002
         AIF   (&B(4)).FLAGS                                            01250002
         AIF   (T'&COMPCOD NE 'N').REGCC                                01300002
         AIF   ('&COMPCOD'(1,1) EQ '(').REGCC                           01310002
         AIF   (&COMPCOD GT 4095).ERR3                                  01350002
.REGCC   ANOP                                                           01360002
         IHBINNRA  &COMPCOD         LOAD REG1 WITH CC                   01400002
         SLL   1,12(0)              COMPCODE IN POSITION                01501202
         AIF   ('&COMPCOD'(1,1) NE '(').CC                              01501302
         LA    1,0(0,1)             CLEAR HIGH ORDER BYTE               01501602
.CC      LA    0,&CTR.(,0)          DUMP/STEP/DUMPOPTS/ASID             01503602
         SLL   0,24(0)              SHIFT TO HIGH ORDER BYTE            01503702
         OR    1,0                  OR IN WITH COMPCODE                 01503802
         AGO   .CC1                                                     01503902
.FLAGS   ANOP                                                           01504002
         LA    1,&CTR.(,0)          DUMP/STEP/DUMPOPTS/ASID             01506002
         SLL   1,24(0)              SHIFT TO HIGH ORDER BYTE            01506402
.CC1     ANOP                                                           01518702
         AIF   ('&TYPE' NE 'MEMTERM' AND '&TYPE' NE 'ABTERM').DUMPOPT   01519102
.TCB     AIF   ('&TYPE' NE 'ABTERM').ASID                      @ZA25000 01521503
         AIF   ('&TCB' NE '0' AND '&TCB'(1,1) NE '(').ERR6     @ZA25000 01522303
         AIF   ('&TCB' EQ '0').TCB0                            @ZA25000 01523103
         IHBINNRA  ,&TCB                                       @ZA25000 01523903
         AGO   .ASID                                           @ZA25000 01524703
.TCB0    LA    0,0(,0)              LOAD REG0-TCB=0            @ZA25000 01525503
.ASID    AIF   ('&ASID' EQ '(2)').DUMPOPT                      @ZA25000 01526303
         AIF   ('&ASID' EQ '').DUMPOPT                         @ZA25000 01527103
         AIF   ('&ASID'(1,1) NE '(').CKNUM                              01527903
         LR    2,&ASID(1)           LOAD REG2 WITH ASID                 01528703
         AGO   .DUMPOPT                                        @ZA25000 01529503
.CKNUM   AIF   (T'&ASID NE 'N').ASYM                                    01531902
         AIF   (&ASID GT 32765).ERR4                                    01533902
.ASYM    CNOP  0,4                                                      01538402
         B     *+6                  BRANCH AROUND CONSTANTS             01538702
         DC    AL2(&ASID)                                               01539102
         LH    2,*-2                LOAD REG2 WITH ASID                 01539502
.DUMPOPT AIF   (NOT &B(3)).LINKAGE                                      01619802
         AIF   ('&DUMPOPT'(1,1) NE '(').ERR7                            01629802
         AIF   ('&DUMPOPT' EQ '(3)').LINKAGE                            01630202
         LR    3,&DUMPOPT(1)        LOAD REG3 WITH DUMPOPTS             01631802
.LINKAGE L     15,X'10'(,0)         GET CVT ADDRESS                     01633802
         L     15,CVTBTERM-CVTMAP(,15) ADDR OF CVTBTERM TABLE           01634802
         L     15,&CTRLNK.(,15)     ADDRESS OF ENTRY POINT              01635802
         AIF   (&CTRACR EQ 0).LNKCNT                                    01637902
         LA    0,&CTRACR.(,0)       ACR TYPE IN REG 0                   01687902
.LNKCNT  AIF   ('&TYPE' NE 'ACR').NRMLNK                                01737902
         BR    15                                                       01787902
         AGO   .END                                                     01837902
.NRMLNK  BALR  14,15                                                    01887902
         AGO   .END                                                     01937902
.ACRLM   AIF   ('&CCA'(1,1) NE '(').ERR10                               01987902
         L     10,LCCACPUS-LCCA&CCA      POINTER TO LCCA SAVEAREAS      02037902
         L     10,WSACACR-WSAC(,10)      POINTER TO ACR SAVEAREA        02087902
         STD   0,0(,10)             STORE FLOATING POINT REGS           02137902
         STD   2,8(,10)                                                 02187902
         STD   4,16(,10)                                                02237902
         STD   6,24(,10)                                                02287902
         STM   0,15,32(10)          STORE REGS 0-15                     02337902
         L     15,X'10'(,0)         GET CVT ADDRESS                     02387902
         L     15,CVTBTERM-CVTMAP(,15) ADDR OF CVTBTERM TABLE           02417902
         L     15,&CTRLNK.(,15)     ADDRESS OF ENTRY POINT              02447902
         LA    0,&CTRACR.(,0)                                           02477902
         BALR  14,15                                                    02537902
         L     10,LCCACPUS-LCCA(,10)    POINTER TO LCCA SAVEAREAS       02587902
         L     10,WSACACR-WSAC(,10)     POINTER TO ACR SAVEAREA         02637902
         LD    0,0(,10)              RESTORE FLOATING POINT REGS        02687902
         LD    2,8(,10)                                                 02737902
         LD    4,16(,10)                                                02787902
         LD    6,24(,10)                                                02837902
         LM    0,15,32(10)          RESTORE REGS 0-15                   02887902
         AGO   .END                                                     02937902
.ERR1    MNOTE 12,'TYPE OPERAND REQ-D-NOT SPECIFIED OR INVALID'         02987902
         MEXIT                                                          03037902
.ERR2    MNOTE 12,'COMPCOD OPERAND REQ-D-NOT SPECIFIED'                 03087902
         MEXIT                                                          03137902
.ERR3    MNOTE 12,'COMPCOD OPERAND EXCEEDS SPECIFIED LIMITS'            03187902
         MEXIT                                                          03237902
.ERR4    MNOTE 12,'ASID OPERAND EXCEEDS SPECIFIED LIMITS'               03287902
         MEXIT                                                          03337902
.ERR6    MNOTE 12,'TCB OPERAND INVALID FORM'                            03387902
         MEXIT                                                          03437902
.ERR7    MNOTE 12,'DUMPOPT OPERAND INVALID'                             03487902
         MEXIT                                                          03537902
.ERR8    MNOTE *,'DUMP OPERAND INVALID - YES ASSUMED'                   03587902
         AGO   .STPCK                                                   03637902
.ERR9    MNOTE *,'STEP OPERAND INVALID - NO ASSUMED'                    03687902
         AGO   .STPCTN                                                  03737902
.ERR10   MNOTE 12,'CCA OPERAND INVALID FORM'                            03787902
         MEXIT                                                          03837902
.END     MEND                                                           03887902
