         MACRO                                                          00050003
&NAME    CALL3886  &IDCB,&IFRID,&IMF                                    00100003
         GBLB  &QUITSW                                                  00150003
.*  FUNCTION  - GENERATE STANDARD PARAMETER LIST FOR 3886 OR CALL       00250003
.*              AN INNER MACRO (INN3886) TO HANDLE THE LIST AND         00300003
.*              EXECUTE FORMS OF THE SETDEV MACRO FOR 3886              00350003
.*             TEST FOR VALID 3886 PARAMETERS                           00400003
         AIF   ('&IFRID' NE '').CKLNTH  TEST IF FRID SPECIFIED          00450003
         AIF   ('&IMF' NE '').CKLNTH    FRID NOT REQ FOR L OR E FM      00500003
.*             ISSUE MNOTE FOR FRID NOT SPECIFIED                       00550003
         IHBERMAC  261                                                  00600003
         AGO   .SETQUIT                  GO SET QUIT SWITCH ON          00650003
.CKLNTH  AIF   (K'&IFRID LE 4).TSTFORM  TEST IF LNTH OF FRID LE 4 CHAR  00700003
.*             ISSUE MNOTE FOR FRID INVALID                             00750003
         IHBERMAC  254,,&IFRID                                          00800003
         AGO   .SETQUIT                  GO SET QUIT SWITCH ON          00850003
.TSTFORM AIF ('&IMF' EQ 'L' OR '&IMF(1)' EQ 'E').LSTOREX   TST L/E FM   00900003
.*             GENERATE CODE FOR STANDARD FORM OF MACRO                 00950003
&NAME    BAL   1,*+16              BRANCH AROUND SETDEV PARAMETER LIST  01000003
.*       TEST IF DCB ADDR IN REG OR NOT SPECIFIED (L OR E FORM)         01050003
         AIF   ('&IDCB' EQ '').NOTADR                                   01100003
         AIF   ('&IDCB'(1,1) EQ '(').NOTADR                             01150003
.*                                 NO GENERATE ADDR CONSTANT FOR DCB    01200003
         DC    A(&IDCB)            DCB ADDRESS                          01250003
         AGO   .FRIDCST            GO GEN FRID CONSTANT                 01300003
.NOTADR  ANOP                                                           01350003
         DC    AL4(0)         DCB ADDRESS                               01400003
.FRIDCST ANOP                                                           01450003
.*                                 GENERATE FRID AND SETDEV FLAG        01500003
          AIF   ('&IFRID' NE '').GFRCST                                 01550003
          DC    CL4' '                        FORMAT RECORD IDENTIFER   01600003
          AGO   .GENFLGS                                                01650003
.GFRCST   ANOP                                                          01700003
         DC    CL4'&IFRID'         FORMAT RECORD IDENTIFER              01750003
.GENFLGS ANOP                                                           01800003
         DC    X'FF020000'         SETDEV FLAGS                         01850003
         AIF   ('&IDCB'(1,1) NE '(').NOSTORE  TST IF DCBADDR IN PARMLST 01900003
         ST    &IDCB,0(1,0)             STORE DCB ADDR IN PARM LIST     01950003
.NOSTORE ANOP                                                           02000003
         MEXIT                                                          02050003
.SETQUIT ANOP                                                           02100003
&QUITSW  SETB  1                                                        02150003
         MEXIT                                                          02200003
.LSTOREX ANOP                                                           02250003
&NAME    INN3886 &IDCB,&IFRID,&IMF                                      02300003
         MEND                                                           02350003
