         MACRO                                                          00010001
&NAME    CAMLST &PAR1,&PAR2,&PAR3,&PAR4,&OPT1,&OPT2,&OPT3,&DSCBTTR=,   *00020001
               &DUMMY=                                                  00030001
         LCLA  &B1,&B2,&B3,&CTR                                         00040001
         LCLB  &P(17),&OP(3),&D(4),&NOGO                            TSO 00042001
         AIF   ('&PAR1' EQ '').E1                                       00044001
         AIF   ('&PAR2' EQ '').E2                                       00046001
.R1      ANOP                                                           00048001
&P(1)    SETB  ('&PAR1' EQ 'CAT' OR '&PAR1' EQ 'CATBX')             TSO 00048401
&P(2)    SETB  ('&PAR1' EQ 'RECAT')                                     00048801
&P(3)    SETB  ('&PAR1' EQ 'UNCAT' OR '&PAR1' EQ 'UCATDX')          TSO 00049201
&P(4)    SETB  ('&PAR1' EQ 'BLDX' OR '&PAR1' EQ 'CATBX')            TSO 00049601
&P(5)    SETB  ('&PAR1' EQ 'BLDG')                                      00049701
&P(6)    SETB  ('&PAR1' EQ 'BLDA')                                      00049801
&P(7)    SETB  ('&PAR1' EQ 'LNKX')                                      00049901
&P(8)    SETB  ('&PAR1' EQ 'DLTX' OR '&PAR1' EQ 'UCATDX')           TSO 00099901
&P(9)    SETB  ('&PAR1' EQ 'DLTA')                                      00109901
&P(10)   SETB  ('&PAR1' EQ 'DRPX')                                      00119901
&P(11)   SETB  ('&PAR1' EQ 'NAME')                                      00129901
&P(12)   SETB  ('&PAR1' EQ 'BLOCK')                                     00139901
&P(13)   SETB  ('&PAR1' EQ 'SEARCH')                                    00141901
&P(14)   SETB  ('&PAR1' EQ 'SEEK')                                      00143901
&P(15)   SETB  ('&PAR1' EQ 'SCRATCH')                                   00145901
&P(16)   SETB  ('&PAR1' EQ 'RENAME')                                    00147901
&P(17)   SETB  ('&DSCBTTR' NE'')                                        00148301
&CTR     SETA  &P(1)+&P(2)+&P(3)+&P(4)+&P(5)+&P(6)+&P(7)+&P(8)+&P(9)    00148701
&CTR     SETA  &CTR+&P(10)+&P(11)+&P(12)+&P(13)+&P(14)+&P(15)+&P(16)    00149101
         AIF   (&CTR EQ 0).E3                                       TSO 00149501
&D(1)    SETB  ('&PAR3' NE '')                                          00149601
&D(2)    SETB  ('&PAR4' NE '')                                          00149701
         AIF   (NOT &D(1) AND (&P(13) OR &P(14) OR &P(16))).E4          00149801
.R3      AIF   (&D(1) AND &P(15)).E5                                    00199801
         AIF   (NOT &D(2) AND (&P(1) OR &P(2) OR &P(6) OR &P(7) OR &P(1X00209801
               1) OR &P(12) OR &P(13) OR &P(14) OR &P(15) OR &P(16))).E 00219801
         AIF   (&P(1) AND &P(4)).R2                                 TSO 00229801
         AIF   (&D(2) AND (&P(3) OR &P(8) OR &P(9) OR &P(10))).E6       00239801
         AIF   (&D(2) AND (&P(3) OR &P(4) OR &P(5) OR &P(8) OR &P(9) ORX00241801
               &P(10))).E6                                              00243801
.R2      AIF   ('&OPT1' EQ '').CONTA                                    00245801
         AIF   ('&OPT1' NE 'DELETE').E7                                 00247801
&OP(1)   SETB  1                                                        00248201
         AIF   (NOT &P(5)).E7                                           00248601
.CONTA   AIF   ('&OPT2' EQ '').CONTB                                    00249001
&OP(2)   SETB  ('&OPT2' EQ 'EMPTY')                                     00249401
&OP(3)   SETB  ('&OPT2' EQ 'OVRD')                                      00249501
         AIF   (&OP(2)+&OP(3)  NE 1).E8                                 00249601
         AIF   (NOT &P(5) AND &OP(2) OR(NOT &P(15) AND &OP(3))).E8      00249701
.CONTB   AIF   ('&OPT3' EQ '' AND &P(5)).E10                            00299701
         AIF   ('&OPT3' NE '' AND NOT &P(5)).E11                        00309701
.CONTB1  AIF   (&P(17) AND NOT (&P(1) OR &P(2))).E12                    00319701
         AIF   (&NOGO EQ 1).END                                         00329701
&B1      SETA  128*&D(1)+64*&D(2)+32*&P(1)+20*&P(2)+8*&P(3)+2*&P(12)    00339701
&D(4)    SETB  (&P(3) OR &P(8))                                     TSO 00341701
&B1      SETA  &B1+4*(&P(11)+&P(5)+&P(6)+&P(7)+&D(4)+&P(9)+&P(10))  TSO 00343701
&D(3)    SETB  (&P(1) OR &P(4))                                     TSO 00345701
&B1      SETA  &B1+4*&D(3)+&P(13)+&P(15)+&P(16)                     TSO 00347701
&B2      SETA  128*&P(14)+64*&P(4)+32*&P(5)+16*&P(6)+8*&P(7)+4*&P(8)+2*X00348101
               &P(17)+&P(9)                                             00348501
&B3      SETA  128*&P(10)+64*&P(15)+32*&P(16)+64*&OP(1)+16*&OP(3)+8*&OPX00348901
               (2)                                                      00349301
&NAME    DS    0F                                ALIGN ON FULL WORD     00349401
         DC    AL1(&B1)                          THREE BYTES OF FLAGS   00349501
         DC    AL1(&B2)                          INDICATING THE FUNC-   00349601
         DC    AL1(&B3)                          TION TO BE PERFORMED   00399601
         AIF   (&P(5)).CONTC                                            00409601
         DC    AL1(0)                            NO OPTION THREE        00419601
         AGO   .CONTD                                                   00429601
.CONTC   DC    AL1(&OPT3)                        NO. OF ENTRIES         00439601
.CONTD   DC    A(&PAR2)                          PARAMETER TWO          00441601
         AIF   (&D(1)).CONTE                                            00443601
         DC    A(0)                              PARAM. THREE OMMITTED  00445601
         AGO   .CONTF                                                   00447601
.CONTE   DC    A(&PAR3)                          PARAMETER THREE        00448001
.CONTF   AIF   (NOT &D(2)).END                                          00448401
         DC    A(&PAR4)                          PARAMETER FOUR         00448801
         AIF   (NOT &P(17)).END                                         00449201
         DC    A(&DSCBTTR)                       PARAMETER FIVE         00449301
         MEXIT                                                          00449401
.E       IHBERMAC 5                     PAR4 MISSING                    00449501
         MEXIT                                                          00499501
.E1      IHBERMAC 2                     PAR1 MISSING                    00509501
         MEXIT                                                          00519501
.E2      IHBERMAC 3                     PAR2 MISSING                    00529501
&NOGO    SETB  1                                                        00539501
         AGO   .R1                                                      00541501
.E3      IHBERMAC 36,,&PAR1             PAR1 INVALID                    00543501
         MEXIT                                                          00545501
.E4      IHBERMAC 4                     PAR3 MISSING                    00547501
&NOGO    SETB  1                                                        00547901
         AGO   .R3                                                      00548301
         MEXIT                                                          00548701
.E5      IHBERMAC 60,,&PAR3             PAR3 W/SCRATCH                  00549101
         MEXIT                                                          00549201
.E6      IHBERMAC 39,,&PAR4             PAR4 NOT ALLOWED                00549301
&NOGO    SETB  1                                                        00549401
         AGO   .R2                                                      00599401
.E7      IHBERMAC 50,,&OPT1             OPTN1 INVALID                   00609401
&NOGO    SETB  1                                                        00619401
         AGO   .CONTA                                                   00629401
.E8      IHBERMAC 51,,&OPT2             OPTN2 INVALID                   00639401
&NOGO    SETB  1                                                        00641401
         AGO   .CONTB                                                   00643401
.E10     IHBERMAC 52                    OPTN3 MISSING                   00645401
         MEXIT                                                          00647401
.E11     IHBERMAC 53,,&OPT3             OPTN3 INVALID                   00647801
&NOGO    SETB  1                                                        00648201
         AGO  .CONTB1                                                   00648601
.E12     IHBERMAC 54,,DSCBTTR           DSCBTTR NOT ALLOWED.            00649001
.END     MEND                                                           00649101
