         MACRO                                                          02000020
&NAME    CANCELMG &MASK,&CONNECT=OR,&LEVEL=MSG,&BLANK=         @Y17XAMQ 04000000
         GBLA  &IEDQZE(64),&IEDQZD                             @Y17XAMQ 06000000
         GBLB  &IEDQZA(64)                                              08000020
         LCLA  &CNT1,&CNT2,&CNT3,&CNT4,&CNT5,&CNT6               S22025 08500022
         LCLA  &MSK                                              S22025 09000022
         LCLB  &SW1,&SW2                                         S22025 09500022
         LCLB  &BIT,&ALG,&NOGO,&MASKMN                                  10000020
         LCLB  &WRKB(2)                                          S22025 10100022
         LCLC  &WRKC1,&WRKC2                                     S22025 10200022
         LCLC  &WRKC                                             S22025 10300022
         LCLC  &LETR                                             S22025 10400022
.*A300000,560000,640000,800000                                   S22025 10600022
.*A827700,828600,829200,830100,831000                            S22025 10650022
.*A080000,100000,460000,535000,740000,808000,810000              S22025 10700022
.*C122000,300000,308000-312000,640000,780000-800000,802000-804000S22025 10800022
.*C304000,109000,122000,814000,820000                            S22025 11000022
.*C040000,120000,560000,640000                                   S22025 11200022
.*A500000                                                      @Y17XAMQ 12200000
.*C040000,060000                                               @Y17XAMQ 13100000
.*A504800                                                      @OZ38082 13100182
.*C501200,501800                                               @OZ43499 13100282
.*A504800                                                      @OZ48948 13100382
.*C501200,501800                                               @OZ48948 13100482
         SPACE                                                          14000020
         AIF   (&IEDQZA(1) AND &IEDQZA(5)).OK                           16000020
         AIF   (&IEDQZA(4)).OUTH OUTHEADER SPECIFICATION                17000000
         MNOTE 12,'***  IHB070  SEQ ERR-MUST FOLLOW INMSG OR OUTHDR'    18000000
&NOGO    SETB  1                                                        20000020
.OK      AIF   (NOT &IEDQZA(18)).MASK                                   22000020
         MNOTE 12,'***  IHB070  SEQUENCE ERROR - MUST BE FIRST MACRO IN*24000020
                INMSG IF SPECIFIED'                                     26000020
&NOGO    SETB  1                                                        28000020
.MASK    ANOP                                                    S22025 29000022
         AIF   ('&LEVEL' NE 'BLK').DATGUD                        S22025 29700022
         AIF   (('&LEVEL' EQ 'BLK') AND ('&CONNECT' EQ 'OR' OR         *30500022
               '&CONNECT' EQ '')).DATGUD                         S22025 30600022
         MNOTE 12,'***  IHB300  CONNECT OPERAND INVALID AS SPECIFIED   *30700022
               WITH LEVEL=BLK'                                   S22025 30800022
&NOGO    SETB  1                                                        30900022
.DATGUD  ANOP                                                    S22025 31000022
         AIF   ('&MASK' EQ '').AND                               S22025 31100022
.SETMSK  ANOP                                                    S22025 31600022
         IEDQMASK &MASK,5                                               32000020
         AIF   (NOT &IEDQZA(24)).CNCL                                   34000020
.ERR     AIF   (&MASKMN).AND                                            35000020
         MNOTE 12,'***  IHB300  MASK OPERAND INVALID AS SPECIFIED'      36000020
&MASKMN  SETB  1                                                        37000020
&NOGO    SETB  1                                                        38000020
.CNCL    AIF   ('&MASK'(1,1) NE 'X').AND                                40000020
         AIF   ('&MASK'(2,1) EQ 'L' AND '&MASK'(3,1) NE '5').ERR        42000020
         AIF   ('&MASK'(2,1) NE 'L' AND K'&MASK NE 13).ERR              44000020
.AND     AIF   ('&CONNECT' EQ 'AND' OR '&CONNECT' EQ 'OR').OP           46000020
         AIF   ('&CONNECT' EQ '').NXT                            S22025 47000022
         MNOTE 12,'***  IHB300  CONNECT OPERAND INVALID AS SPECIFIED'   48000020
         AGO   .MEND                                                    50000020
.OUTH    AIF   ('&CONNECT' EQ 'OR' AND '&LEVEL' EQ 'MSG').OHOK @Y17XAMQ 50030000
         MNOTE 4,'***   IHB300  EXTRANEOUS OPERANDS IGNORED'   @Y17XAMQ 50060000
.OHOK    ANOP                                                  @Y17XAMQ 50090000
&MSK     SETA  20                                              @OZ48948 50120082
         AIF   ('&MASK' EQ '').OHNOM                           @Y17XAMQ 50150000
&MSK     SETA  52                                              @OZ48948 50180082
         IEDQCHAR 8,&MASK                                      @Y17XAMQ 50210000
         AIF   (NOT &IEDQZA(24) AND &IEDQZD LE 8).OHNOM        @Y17XAMQ 50240000
         MNOTE 12,'***  IHB300  CHARACTER OPRND INVAL AS SPEC' @Y17XAMQ 50270000
         AGO   .MEND                                           @Y17XAMQ 50300000
.OHNOM   ANOP                                                  @Y17XAMQ 50330000
&NAME    CNOP   0,4                                            @Y17XAMQ 50360000
         L     1,IEDADBUF               GET BUFFER ADDRESS     @Y17XAMQ 50390000
         L     15,12(1)                 GET LCB ADDRESS        @Y17XAMQ 50420000
         CLI   32(15),0                 IS IT A PLCB           @Y17XAMQ 50450000
         BNE   *+&MSK                   BRANCH IF NOT          @Y17XAMQ 50480000
         TM    71(15),X'02'             IS THIS A DIAL LCB     @OZ48948 50483082
         BO    *+8                      YES, DON'T SET LCBNEGRP@OZ48948 50486082
         OI    71(15),X'08'             NEG RESPONSE TO POLL   @OZ38082 50490082
         AIF   ('&MASK' EQ '').OHGNM                           @Y17XAMQ 50510000
         IEDQSCAN &IEDQZD,&MASK,&BLANK                         @Y17XAMQ 50540000
         AIF   (&IEDQZA(24)).MEND                              @Y17XAMQ 50570000
         LTR   15,15                    CHAR STRING FOUND      @Y17XAMQ 50600000
         BNP   *+16                     BRANCH ON NO           @Y17XAMQ 50630000
         L     1,IEDADBUF               GET BUFFER ADDRESS     @Y17XAMQ 50660000
         STH   15,24(,1)                STORE SCAN POINTER     @Y17XAMQ 50690000
.OHGNM   OI    20(1),X'80'              SET STOPMSG FLAG       @Y17XAMQ 50720000
         AGO   .MEND                                           @Y17XAMQ 50750000
.OP      AIF   (&NOGO).MEND                                             51000020
         AIF   ('&CONNECT' EQ 'OR').NXT                                 52000020
&ALG     SETB  1                                                        53000020
.NXT     AIF   ('&LEVEL' EQ 'MSG' OR '&LEVEL' EQ 'BLK').CKMSG    S22025 53500022
         AIF   ('&LEVEL' EQ '').MESG                             S22025 53700022
         MNOTE 12,'*** IHB300 LEVEL OPERAND INVALID AS SPECIFIED'       54000022
         AGO   .MEND                                             S22025 54500022
.CKMSG   AIF   ('&LEVEL' EQ 'MSG').MESG                          S22025 55000022
         IEDQVCON 57,IEDQBU                                      S22025 55500022
         AGO   .MSK                                              S22025 56000022
.MESG    IEDQVCON 2,IEDQAR                                       S22025 56500022
.MSK     ANOP                                                    S22025 57000022
         AIF   ('&MASK' NE '0' AND '&MASK' NE 'X''0000000000''' AND '&M*58000020
               ASK' NE 'XL5''0000000000''' AND '&MASK' NE '').SKP       60000020
&BIT     SETB  1                                                        62000020
.SKP     AIF   ('&LEVEL' EQ 'BLK').SDC                           S22025 64000022
         AIF   (NOT &BIT).DC                                     S22025 66000022
&NAME    DC    AL1(&IEDQZE(2)+&BIT),AL1(4+&ALG),H'0'                    68000020
         AGO   .MEND                                                    70000020
.DC      ANOP                                                           72000020
&NAME    DC    AL1(&IEDQZE(2)+&BIT),AL1(&ALG+8),AL1(0)                  74000020
         AIF   ('&MASK' EQ '').MENDY                             S22025 75000022
         AIF   ('&MASK'(1,1) EQ 'X').HEX                                76000020
&MSK     SETA  &MASK                                             S22025 76500022
         AIF   ('&LEVEL' NE 'BLK').MERDIS                        S22025 77000022
&MSK     SETA  &MSK/X'010000'*X'010000'-&MSK/X'4000'*X'4000'+&MSK+X'C00*77500022
               0'                                                S22025 78000022
.MERDIS  ANOP                                                    S22025 78500022
         DC    FL5'&MSK' .              ERROR MASK               S22025 79000022
         AGO   .MEND                                             S22025 79500022
.GENMSK  ANOP                                                    S22025 79800022
         DC    XL5'000000C000'          ERROR MASK               S22025 80100022
         AGO   .MEND                                             S22025 80600022
.SDC     ANOP                                                    S22025 80800022
&BIT     SETB  0                                                        80900022
&NAME    DC    AL1(&IEDQZE(57)+&BIT),AL1(&ALG+8),AL1(0)          S22025 81000022
         AIF   ('&MASK' EQ '').GENMSK                            S22025 81100022
         AIF   ('&MASK'(1,1) EQ 'X').HEX                         S22025 81200022
&MSK     SETA  &MASK                                             S22025 81260022
&MSK     SETA  &MSK/X'010000'*X'010000'-&MSK/X'4000'*X'4000'+&MSK+X'C00*81320022
               0'                                                S22025 81380022
.MERDI2  ANOP                                                    S22025 81440022
         DC    FL5'&MSK' .              ERROR MASK               S22025 81500022
         AGO   .MEND                                             S22025 81600022
.MENDY   ANOP                                                    S22025 81630022
         AIF   ('&LEVEL' EQ 'BLK').GENMSK                        S22025 81660022
.HEX     ANOP                                                    S22025 81690022
.XL5     ANOP                                                    S22025 81720022
         AIF   ('&LEVEL' NE 'BLK').TSKTSK                        S22025 81750022
&CNT1    SETA  2                        SET COUNTER              S22025 81780022
         AIF   ('&MASK'(2,2) EQ 'L5').XL5OK CHECK FOR XL5        S22025 81810022
         AIF   ('&MASK'(&CNT1,1) EQ '''').COUNT                  S22025 81840022
.BDNEWS  ANOP                                                    S22025 81870022
         MNOTE 12,'***  IHB300  MASK INVALID AS SPECIFIED '      S22025 81900022
         AGO   .MEND                                             S22025 81930022
.TSKTSK  ANOP                                                    S22025 81960022
         DC    &MASK                    ERROR MASK               S22025 81990022
         AGO   .MEND                                             S22025 82020022
.XL5OK   ANOP                                                    S22025 82050022
&CNT1    SETA  &CNT1+2                  RESET TO POSITION OF     S22025 82080022
.*                                      FIRST APOSTROPHE IF XL5  S22025 82110022
.*                                      IS SPECIFED              S22025 82140022
         AIF   ('&MASK'(&CNT1,1) EQ '''').COUNT                  S22025 82170022
         AGO   .BDNEWS                                           S22025 82200022
.COUNT   ANOP                                                    S22025 82230022
&CNT2    SETA  &CNT1                                             S22025 82260022
.LOOP    ANOP                                                    S22025 82290022
&CNT2    SETA  &CNT2+1                  INCREMENT COUNT TO NEXT  S22025 82320022
.*                                      OPERAND POSITION         S22025 82350022
         AIF   ('&MASK'(&CNT2,1) EQ '''').STPLP CHK THIS  CHARTR S22025 82380022
         AIF   (&CNT2 GT 15).BDNEWS     COUNT GREATER THAN NO.   S22025 82410022
.*                                      OF MAX NO. OF  CHARACTERSS22025 82440022
         AGO   .LOOP                    BACK TO TOP OF LOOP      S22025 82470022
.STPLP   ANOP                                                    S22025 82500022
&CNT3    SETA  (&CNT2-&CNT1)-1          GET NUMBER OF CHARACTERS S22025 82530022
.*                                      USER SPECIFIED           S22025 82560022
         AIF   (&CNT3 GE 1).GDSHOW      ATLEAST ONE              S22025 82590022
         AGO   .BDNEWS                  NONE FORGET IT           S22025 82620022
.GDSHOW  ANOP                                                    S22025 82650022
         AIF   (&CNT3 GT 4).SET00       MORE THAN FOUR           S22025 82680022
.*                                      LESS THAN FOUR           S22025 82710022
&CNT4    SETA  5-&CNT3                  SET COUNT FOR CHARACTER  S22025 82740022
.*                                      WORK AREA POSITION       S22025 82770022
         AIF   (&CNT3 EQ 4).USE4                                 S22025 82780022
&WRKC1   SETC  '000'(1,4-&CNT3)         MOVE IN PADDING CARACTERSS22025 82800022
&LETR    SETC  '&MASK'(&CNT1+1,&CNT3)                                   82830022
&WRKC1   SETC  '&WRKC1'(1,4-&CNT3).'&LETR'(1,&CNT3)                     82860022
.PAD6    ANOP                                                    S22025 82870022
&WRKC2   SETC  '000000'                PAD WORK AREA             S22025 82890022
         AGO   .OUT1                    ALMOST DONE              S22025 82920022
.USE4    ANOP                                                    S22025 82924022
&WRKC1   SETC  '&MASK'(&CNT1+1,&CNT3)                            S22025 82928022
         AGO   .PAD6                                             S22025 82932022
.USE6    ANOP                                                    S22025 82936022
&WRKC2   SETC  '&MASK'(&CNT1+1,&CNT5)                            S22025 82940022
         AGO   .DOREST                                           S22025 82944022
.SET00   ANOP                                                    S22025 82950022
&CNT5    SETA  &CNT3-4                  SET POSITION OF 4TH BYTE S22025 82980022
.*                                      OF WORK AREA             S22025 83010022
         AIF   (&CNT5 EQ 6).USE6                                 S22025 83020022
&WRKC2   SETC  '000000'(1,6-&CNT5)      PAD WORK AREA            S22025 83040022
&LETR    SETC  '&MASK'(&CNT1+1,&CNT5)                                   83070022
&WRKC2   SETC '&WRKC2'(1,6-&CNT5).'&LETR'(1,&CNT5)                      83100022
.DOREST  ANOP                                                    S22025 83110022
&WRKC1   SETC  '&MASK'(&CNT1+1+&CNT3-4,4)                        S22025 83130022
.OUT1    ANOP                                                    S22025 83160022
&WRKB(1) SETB ('&WRKC1'(1,1) EQ '2' OR '&WRKC1'(1,1) EQ '3' OR '&WRKC1'*83190022
               (1,1) EQ '6' OR '&WRKC1'(1,1) EQ '7' OR '&WRKC1'(1,1) EQ*83220022
                'A' OR '&WRKC1'(1,1) EQ 'B' OR '&WRKC1'(1,1) EQ 'E' )   83250022
&WRKB(1) SETB ('&WRKC1'(1,1) EQ 'F' OR &WRKB(1) EQ 1)            S22025 83280022
&WRKB(2) SETB ('&WRKC1'(1,1) EQ '1' OR '&WRKC1'(1,1) EQ '3' OR '&WRKC1'*83310022
               (1,1) EQ '5' OR '&WRKC1'(1,1) EQ '7' OR '&WRKC1'(1,1) EQ*83340022
                '9' OR '&WRKC1'(1,1) EQ 'B' OR '&WRKC1'(1,1) EQ 'D' )   83370022
&WRKB(2) SETB ('&WRKC1'(1,1) EQ 'F' OR &WRKB(2) EQ 1)            S22025 83400022
&WRKC1   SETC  'CDEF'(1+2*&WRKB(1)+&WRKB(2),1).'&WRKC1'(2,3)     S22025 83430022
         DC    XL5'&WRKC2&WRKC1.' .     ERROR MASK               S22025 83460022
.MEND    SPACE 2                                                        84000020
         MEND                                                           86000020
