         MACRO                                                          04000020
&NAME    CARRIAGE                                                       08000020
         GBLA  &IEDQZE(64)                                              12000020
         GBLB  &IEDQZA(64)                                              16000020
.* CHANGE ACTIVITY AS FOLLOWS                                           17000010
.******************* MICROFICHE FLAGS *********************** SUPT CODE 18000010
.*C640000-680000                                                SA60350 20000010
         AIF   (&IEDQZA(9)).TSO                                         24000020
         MNOTE 12,'***  IHB312 - MACRO MUST FOLLOW STARTMH MACRO WITH  *28000020
                TSOMH=YES.'                                             32000020
         AGO   .MEND                                                    36000020
.TSO     AIF   (&IEDQZA(1) AND NOT &IEDQZA(3) AND NOT &IEDQZA(5)).OK    44000020
         MNOTE 12,'*** IHB070 SEQUENCE ERROR-MUST FOLLOW INBUF MACRO.'  48000020
         AGO   .MEND                                                    52000020
.OK      IEDQVCON 13,IEDAYC                                             56000020
.NOSEND  CNOP  0,4                                                      60000020
&NAME    BAL   1,*+8                                            SA60350 64000010
         DC    AL1(&IEDQZE(13)),AL1(4),AL2(&IEDQZA(3))          SA60350 67000010
         L     15,IEDUI .    CARRIAGE ROUTINE                           72000020
         BALR  14,15                                                    76000020
.MEND    SPACE 2                                                        80000020
         MEND                                                           84000020
