*%/*                                                                    00060002
         MACRO                                                          00070002
&NAME    CHAP  &VALUE,&TCB,&RELATED=                                    00100002
         LCLA  &K                                                 MO19  00150002
         LCLC  &NUM                                               MO19  00200002
.*    001400,001800,002000,002400,002600                          MO19  00250002
         AIF   ('&VALUE' EQ '').E1                                      00300002
         AIF   ('&TCB' EQ '' OR '&TCB' EQ '''S''').SR                   00350002
&NAME    IHBINNRA &TCB                                                  00400002
.CONT    AIF   ('&VALUE'(1,1) EQ '(').REG                               00450002
         AIF   ('&VALUE'(1,1) EQ '+' OR '&VALUE'(1,1) EQ '-').SIGN      00500002
         AIF   ('&VALUE'(1,1) GE '0' AND '&VALUE'(1,1) LE '9').NUM MO19 00550002
         B     *+6                                                      00600002
         DC    AL2(&VALUE)                       DELTA VALUE            00650002
         LH    0,*-2                             LOAD VALUE             00700002
         AGO   .SVC                                                MO19 00750002
.NUM     ANOP                                                      MO19 00800002
         LA    0,&VALUE.(0,0)                    LOAD VALUE      YM1995 00850002
         AGO   .SVC                                                     00900002
.SIGN    ANOP                                                     MO19  00950002
&K       SETA  K'&VALUE-1                                         MO19  01000002
&NUM     SETC  '&VALUE'(2,&K)                                     MO19  01050002
         LA    0,&NUM.(0,0)                      LOAD VALUE      YM1995 01100002
         AIF   ('&VALUE'(1,1) EQ '+').SVC                         MO19  01150002
         LNR   0,0                               LOAD NEGATIVE VALUE    01200002
         AGO   .SVC                                                     01250002
.REG     IHBINNRA ,&VALUE                                               01300002
.SVC     SVC   44                                ISSUE CHAP SVC         01350002
         MEXIT                                                          01400002
.SR      ANOP                                                           01450002
&NAME    SR    1,1                               NO SUBTASK TCBLOC      01500002
         AGO   .CONT                                                    01550002
.E1      IHBERMAC 15,312                                                01600002
         MEND                                                           01650002
**/                                                                     01700002
*CHAP:   MACRO                                                          01750002
*        KEYS(RELATED);                                                 01760002
*        ANS('?'||MACLABEL||'CHAPP '||MACLIST||MACKEYS||';');           01800002
*%END;                                                                  01850002
