         MACRO                                                          00050000
&NAME    CHECK &DECB,&DSORG=,&RPL=                                      00100000
.*       CHANGE LEVEL = 11                                              00150000
.*       DATE OF LAST CHANGE = 24 MARCH 1972  ( 72*084 )                00200000
         AIF   ('&RPL' NE '').JES                                       00250000
         AIF   ('&DECB' EQ '').E1                                       00300000
         AIF   ('&DSORG' EQ '').A1                                      00350000
         AIF   ('&DSORG' EQ 'IS').A2                                    00400000
         AIF   ('&DSORG' EQ 'ALL').A3                                   00450000
         IHBERMAC 180,DSORG,ALL                                         00500000
         AGO   .A3                                                      00550000
.A1      ANOP                                                           00600000
&NAME    IHBINNRA &DECB                                                 00650000
         L     14,8(0,1)                PICK UP DCB ADDR                00700000
         L     15,52(0,14)              LOAD CHECK ROUTINE ADDR         00750000
         BALR  14,15                    LINK TO CHECK ROUTINE           00800000
         MEXIT                                                          00850000
.A2      ANOP                                                           00900000
&NAME    IHBINNRA &DECB                                                 00950000
         L     14,8(0,1)                PICK UP DCB ADDR                01000000
         L     15,76(0,14)              LOAD CHECK RTN ADDR FOR ISAM    01050000
         BALR  14,15                    LINK TO CHECK ROUT ADDR         01100000
         MEXIT                                                          01150000
.A3      ANOP                                                           01200000
&NAME    IHBINNRA &DECB                                                 01250000
         L     14,8(0,1)                PICK UP DCB ADDR                01300000
         L     15,76(0,14)              LOAD CHECK RTN ADDR FOR ISAM    01350000
         TM    26(14),X'80'             CHECK ISAM                      01400000
         BO    *+8                                                      01450000
         L     15,52(0,14)              LOAD CHECK ROUTINE              01500000
         BALR  14,15                    LINK TO CHECK ROUTINE ADDR      01550000
         MEXIT                                                          01600000
.E1      IHBERMAC 7                     DECB OPERAND MISSING            01650000
         MEXIT                                                          01700000
.JES     ANOP                                                           01750000
&NAME    DS    0H                                                       01800000
         AIF   ('&RPL'(1,1) EQ '(').RPLR                                01850000
         LA    1,&RPL                   LOAD RPL ADDR                   01900000
         AGO   .AREG                                                    01950000
.RPLR    LR    1,&RPL(1)                LOAD RPL ADDR VIA REG           02000000
.AREG    LA    0,X'02'                  INDICATE CHECK IN REGISTER      02050000
         L     15,24(1)                 LOAD ACB ADDR FROM RPL          02100000
         L     15,8(15)                 LOAD JES INTERFACE MOD ADDR     02400000
         BALR  14,15                    BRANCH TO INTERFACE ROUTINE     02450000
         MEND                                                           02550000
