         MACRO                                                          01000013
&NAME    CHGNTRY  &LIST,&LSTYP,&ENTID,&NO,&STAT                         02000013
         LCLA  &CBAD(1),&NO1,&DLST                                      03000013
         LCLB  &SW2                                                     04000013
         LCLC  &X                                                       04300002
&X       SETC  '&SYSNDX'                                                04600002
&DLST    SETA  0                                                        05000013
&SW2     SETB  0                                                        06000013
.*                                                                      07000013
&NAME    DS    0H                                                       08000013
         AIF   ('&LIST'(1,1) EQ '(').REG1                               09000013
         LA    1,&LIST                                                  10000013
         AGO   .T2                                                      11000013
.REG1    AIF   ('&LIST(1)' EQ '1').T2                                   12000013
         LR    1,&LIST(1)                                               13000013
.*                                                                      14000013
.T2      AIF   ('&LSTYP' EQ 'DIALST').DIAL                              15000013
         AIF   ('&LSTYP' EQ 'SWLST').SWLST                         000L 15500019
         AIF   ('&LSTYP' EQ 'IDLST').ER4                                16000013
         AIF   ('&LSTYP' EQ 'SSALST' OR '&LSTYP' EQ 'SSAWLST').SSA 000A 17000013
         AIF   ('&LSTYP' EQ 'AUTOLST' OR '&LSTYP' EQ 'AUTOWLST').SSA    17500014
         AIF   ('&LSTYP' EQ 'ATTLST').ANR                               17700002
.*                                                                      18000013
.T3      AIF   ('&ENTID'(1,1)  EQ '(').RSP                              19000013
         AIF   ('&NO'(1,1) EQ '(').RSP8                                 20000013
&CBAD(1) SETA  ((&NO+1)*&ENTID)-1+&DLST                                 21000013
.TSTSKP  AIF   ('&STAT' NE 'SKIP').ACT                                  22000013
         OI    &CBAD(1)(1),X'40'    SET SKIP FLAG                       23000013
         AGO   .FIN                                                     24000013
.ACT     AIF   ('&STAT' NE 'ACTIVATE').ER3                              25000013
         NI    &CBAD(1)(1),X'BF'    SET ACTIVATE FLAG                   26000013
         AGO   .FIN                                                     27000013
.RSP     ANOP                                                           28000013
         AIF   (T'&ENTID(1) NE 'N').SK1                                 29000013
         AIF   ('&ENTID(1)' LT '2').ER1                                 30000013
.SK1     LR    15,&ENTID(1)                                             31000013
         AIF   ('&NO'(1,1) EQ '(').RSP9                                 32000013
&NO1     SETA  (&NO+1)                                                  33000013
         LA    14,&NO1                                                  34000013
.MULT    ANOP                                                           35000013
         MR    14,14                                                    36000013
         AIF   (&SW2).T5                                                37000013
         BCTR  15,0                                                     38000013
.T5      ANOP                                                           39000013
&CBAD(1) SETA  0                                                        40000013
         AR    1,15                                                     41000013
         AGO   .TSTSKP                                                  42000013
.RSP8    ANOP                                                           43000013
         LA    15,&ENTID                                                44000013
         AIF   (T'&NO(1) NE 'N').SK2                                    45000013
.RSP9    AIF   ('&NO(1)' LT '2').ER2                                    46000013
.SK2     LA    14,1(&NO(1))                                             47000013
         AGO   .MULT                                                    48000013
.*                                                                      49000013
.DIAL    ANOP                                                           50000013
&SW2     SETB  1                                                        51000013
&DLST    SETA  1                                                        52000013
         SR    0,0                                                      53000013
         IC    0,0(1)                                                   54000013
         AR    1,0                                                      55000013
         AGO   .T3                                                      56000013
.*                                                                 000L 56020019
.SWLST   ANOP                                                      000L 56040019
         AIF   ('&ENTID'(1,1) EQ '(').REG                          000L 56060019
         AIF   ('&NO'(1,1) EQ '(' OR T'&NO(1) EQ 'N').ER5          000L 56080019
         AIF   ('&NO' NE 'ACTIVATE' AND '&NO' NE 'DISC' AND '&NO' NE   C56100019
               'POST').ER6                                         000L 56120019
         LA    15,&ENTID                GET POSITION               000L 56140019
.CNTBYT  ANOP                                                      000L 56160019
         SR    0,0                                                 000L 56180019
         IC    0,6(1)                   GET READ-IN-AREA LENGTH    000L 56200019
         AR    1,0                      ADD LENGTH TO ADDR OF LIST 000L 56220019
         IC    0,8(1)                   GET ID COUNT               000L 56240019
         AR    1,0                      ADD TO LIST ADDRESS        000L 56260019
         LA    1,8(1)                   POINT TO ENTRY-1           000L 56280019
         AIF   ('&LIST'(1,1) EQ '(').LODREG                        000L 56300019
         IC    0,&LIST+5                GET ENTRY LENGTH           000L 56320019
.MULPLY  ANOP                                                      000L 56340019
         MR    14,0                     POSITION X ENTRY LENGTH    000L 56360019
         AR    1,15                     ADD TO HEADER              000L 56380019
         AIF   ('&NO' EQ 'DISC').DISCON                            000L 56400019
         AIF   ('&NO' EQ 'POST').POST                              000L 56420019
         MVI   0(1),X'00'               ACTIVATE                   000L 56440019
         AGO   .FIN                                                000L 56460019
.DISCON  ANOP                                                      000L 56480019
         MVI   0(1),X'01'               DISCONNECT                 000L 56500019
         AGO   .FIN                                                000L 56520019
.POST    ANOP                                                      000L 56540019
         MVI   0(1),X'02'               POST                       000L 56560019
         AGO   .FIN                                                000L 56580019
.REG     ANOP                                                      000L 56600019
         AIF   (T'&ENTID(1) NE 'N').SK3                            000L 56620019
         AIF   ('&ENTID(1)' LT '2').ER1                            000L 56640019
.SK3     ANOP                                                      000L 56660019
         LR    15,&ENTID(1)             GET POSITION               000L 56680019
         AGO   .CNTBYT                                             000L 56700019
.LODREG  ANOP                                                      000L 56720019
         LR    2,&LIST(1)               GET LIST ADDRESS           000L 56740019
         IC    0,5(2)                   GET ENTRY LENGTH           000L 56760019
         AGO   .MULPLY                                             000L 56780019
.*                                                                 000A 57000013
.SSA     ANOP                                                      000A 58000013
         AIF   ('&ENTID'(1,1) EQ '(' AND '&ENTID'(K'&ENTID,1)          C59000013
               EQ ')').SSAR                                        000A 60000013
         LA    0,&ENTID                                            000A 61000013
         AGO   .STATUS                                             000A 62000013
.SSAR    AIF   ('&ENTID(1)' EQ '0').STATUS                         000A 63000013
         LR    0,&ENTID(1)                                         000A 64000013
.STATUS  CNOP  2,4                                                 000A 65000013
         AIF   ('&STAT' EQ 'SKIP').CALL                            000A 66000013
         AIF   ('&STAT' NE 'ACTIVATE').ER3                         000A 67000013
         O     1,*+18                                              000A 68000013
.CALL    L     15,*+10                                             000A 69000013
         BALR  14,15                                               000A 70000013
         B     *+12                                                000A 71000013
         DC    V(IECTCHGN)                                         000A 72000013
         DC    X'80000000'                                         000A 73000013
         MEXIT                                                     000A 74000013
.*                                                                 000A 75000013
.ANR     L     15,44(1)            GET DEB ADDR                         75020002
         L     14,24(15)           GET DCB ADDR FROM DEB                75040002
         LA    14,0(14)            CLEAR HIGH-ORDER BYTE                75060002
         LA    1,0(1)              CLEAR HIGH-ORDER BYTE                75080002
         CR    1,14                DCB-DEB LOOP COMPLETE                75100002
         BNE   IECA&X              NO, GIVE RETURN CODE = 8             75120002
         LR    1,15                DEB ADDR TO REG 1                    75140002
.*                                                                      75160002
         AIF   ('&ENTID'(1,1) EQ '(').ANRENT                            75180002
         LA    15,&ENTID           GET RLN                              75200002
.CHKRLN  SR    14,14                                                    75220002
         IC    14,16(1)            GET NUMBER OF EXTENTS                75240002
         CR    15,14               IS RLN VALID                         75260002
         BH    IECA&X              NO, GIVE RETURN CODE = 8             75280002
         SLA   15,2                MULTIPLY RLN BY 4                    75300002
         L     1,28(15,1)          GET ADDR OF UCB FROM DEB             75320002
         SR    0,0                                                      75340002
         AIF   ('&STAT' EQ 'SKIP').ANRSKP                               75360002
         AIF   ('&STAT' NE 'ACTIVATE').ER3                              75380002
         LA    15,3                FUNCTION IS ACTIVATE                 75400002
.ESR     SVC   116                 INVOKE ESR                           75420002
         B     IECB&X              BRANCH TO EXIT                       75440002
IECA&X   LA    15,8                SET RETURN CODE OF 8                 75460002
IECB&X   EQU   *                                                        75480002
         MEXIT                                                          75500002
.*                                                                      75520002
.ANRENT  AIF   (T'&ENTID(1) NE 'N').ANR1                        YA01245 75540002
         AIF   ('&ENTID(1)' LT '2').ER1                                 75560002
.ANR1    LR    15,&ENTID(1)        GET RLN                              75580002
         AGO   .CHKRLN                                                  75600002
.*                                                                      75620002
.ANRSKP  LA    15,2                FUNCTION IS SKIP                     75640002
         AGO   .ESR                                                     75660002
.*                                                                      75680002
.ER1     MNOTE 12,'***  IHB002  INVALID LISTNTRY OPERAND SPECIFIED-&ENTX76000013
               ID'                                                      77000013
         MEXIT                                                          78000013
.ER2     MNOTE 12,'***  IHB002  INVALID NUMCHARS OPERAND SPECIFIED-&NO' 79000013
         MEXIT                                                          80000013
.ER3     MNOTE 12,'***  IHB002  INVALID SKIP/ACTIVATE OPERAND SPECIFIEDX81000013
               -&STAT'                                                  82000013
         MEXIT                                                          83000013
.ER4     MNOTE 12,'***  IHB002  INVALID TYPE OPERAND SPECIFIED-IDLST'   84000013
         MEXIT                                                          85000013
.ER5     MNOTE  12,'*** IHB002  INVALID OPERAND SPECIFIED'         000L 85200019
         MEXIT                                                     000L 85400019
.ER6     MNOTE 12,'***  IHB002  INVALID ACTIVATE/DISC/POST OPERAND     X85600019
               SPECIFIED'                                          000L 85800019
.FIN     ANOP                                                           86000013
         MEND                                                           87000013
