         MACRO                                                          00800017
&NAME    CHKPT &DCB,&ID,&LNG,&MF=S                                      01600017
         LCLA  &A                                                       01800017
&A       SETA  N'&DCB+N'&ID+N'&LNG                                      02000017
         AIF   (T'&DCB EQ 'O').E   CANCEL OPND CHECK- 1ST OPND, S FORM  02400017
         AIF   ('&DCB' EQ 'CANCEL' AND '&MF' NE 'S').ERR5               03200017
         AIF   ('&DCB' EQ 'CANCEL' AND &A GT 1).ERR5                    04000017
.E       AIF   ('&MF' EQ 'S').S1   STANDARD FORM                        04800017
         AIF   ('&MF' EQ 'L').L1        LIST FORM                       05600017
         AIF   ('&MF(1)' NE 'E' OR N'&MF NE 2).ERR1                     06400017
&NAME    IHBINNRA &MF(2)                EXECUTE FORM                    07200017
         AIF   (T'&DCB EQ 'O').E2                                       08000017
         AIF   (&A NE 1).E1A    E FORM, MORE THAN 1 OPND                08800017
         IC    15,0(0,1)                                                09600017
.E1A     AIF   ('&DCB'(1,1) EQ '(').E1                                  10400017
         LA    14,&DCB             LOAD DCB ADDRESS                     11200017
         ST    14,0(0,1)           STORE INTO PARAM. LIST               12000017
         AGO   .E1B                                                     12800017
.E1      ST    &DCB,0(0,1)         STORE DCB ADDR INTO PARAM LIST       13600017
.E1B     AIF   (&A NE 1).E2                                             14400017
         STC   15,0(0,1)                                                15200017
.E2      AIF   (T'&ID EQ 'O').E6                                        16000017
         AIF   (T'&DCB NE 'O').E2A                                      16800017
         MVI   0(1),0                                                   17600017
.E2A     AIF   (T'&LNG NE 'O').E3                                       18400017
         IC    15,4(0,1)           SAVE LENGTH                          19200017
.E3      AIF   ('&ID'(1,1) EQ '(').E4                                   20000017
         LA    14,&ID              LOAD CHECKID ADDRESS                 20800017
         ST    14,4(0,1)           STORE INTO PARAM. LIST               21600017
         AGO   .E5                                                      22400017
.E4      ST    &ID,4(0,1)          STORE CHECKID ADDR INTO PARAM LIST   23200017
.E5      AIF   (T'&LNG NE 'O').S13                                      24000017
         STC   15,4(0,1)           RESTORE LENGTH                       24800017
         AGO   .E7                                                      25600017
.E6      AIF   (T'&LNG NE 'O').S13                                      26400017
.E7      SVC   63                                                       27200017
         MEXIT                                                          28000017
.L1      AIF   (T'&DCB EQ 'O').L2                                       28800017
         AIF   ('&DCB'(1,1) EQ '(').ERR2     L FORM, REG OPND           29600017
.L2      AIF   (T'&ID  EQ 'O').L3                                       30400017
         AIF   ('&ID'(1,1) EQ '(').ERR2      L FORM, REG OPND           31200017
.L3      AIF   (T'&LNG EQ 'O').L4                                       32000017
         AIF   ('&LNG'(1,1) EQ '(').ERR2     L FORM, REG OPND           32800017
.L4      ANOP                                                           33600017
&NAME    DS    0F                                                       34400017
         AIF   (&A GT 1 OR T'&DCB EQ 'O').S5                            35200017
         DC    X'80'               INDICATE END OF LIST                 36000017
         DC    AL3(&DCB)           DCB ADDRESS                          36800017
         DC    A(0)                CHECKID ADDRESS                      37600017
         MEXIT                                                          38400017
.S1      AIF   (T'&DCB EQ 'O').ERR3   S FORM, DCB OPND CANT BE OMITTED  39200017
         AIF   (&A GT 1).S4                                             40000017
         AIF   ('&DCB' NE 'CANCEL').S2                                  40800017
&NAME    XR    1,1                                                      41600017
         AGO   .S3                                                      42400017
.S2      CNOP  0,4                                                      43200017
&NAME    BAL   1,*+12                                                   44000017
         AIF   ('&DCB'(1,1) EQ '(').S22                                 44800017
         DC    X'80'               INDICATE END OF LIST                 45600017
         DC    AL3(&DCB)           DCB ADDRESS                          46400017
         DC    A(0)                CHECKID ADDRESS                      47200017
.S3      SVC   63                                                       48000017
         MEXIT                                                          48800017
.S22     DC    A(0)                                                     49600017
         DC    A(0)                                                     50400017
         ST    &DCB,0(0,1)                                              51200017
         MVI   0(1),X'80'                                               52000017
         AGO   .S3                                                      52800017
.S4      AIF   (T'&ID  EQ 'O').ERR4     2ND OPND OMITTED                53600017
         CNOP  0,4                                                      54400017
&NAME    BAL   1,*+12                                                   55200017
.S5      AIF   (T'&DCB EQ 'O').S6       LIST FORM                       56000017
         AIF   ('&DCB'(1,1) EQ '(').S6  STANDARD FORM                   56800017
         DC    A(&DCB)             DCB ADDRESS                          57600017
         AGO   .S6A                                                     58400017
.S6      DC    A(0)                DCB ADDRESS                          59200017
.S6A     AIF   ('&MF' EQ 'L').S7A                                       60000017
.S7      AIF   ('&ID'(1,1) EQ '(').S12       S FORM, REG OPND           60800017
.S7A     AIF   (T'&LNG EQ 'O').S8                                       61600017
         AIF   ('&LNG' EQ '''S''').S10                                  62400017
         AIF   ('&LNG'(1,1) EQ '(').S9                                  63200017
         DC    AL1(&LNG)           CHECKID LENGTH                       64000017
         AGO   .S11                                                     64800017
.S8      DC    AL1(8)              CHECKID LENGTH                       65600017
         AGO   .S11                                                     66400017
.S9      DC    A(&ID)              CHECKID ADDRESS                      67200017
         AGO   .S15                GENERATE STC INSTR FOR REG FORM      68000017
.S10     DC    AL1(255)            CHECKID LENGTH                       68800017
.S11     AIF   (T'&ID EQ 'O').S11A      L FORM                          69600017
         DC    AL3(&ID)            CHECKID ADDRESS                      70400017
         AIF   ('&MF' EQ 'S').S18       S FORM                          71200017
         MEXIT                                                          72000017
.S11A    DC    AL3(0)              CHECKID ADDRESS                      72800017
         MEXIT                                                          73600017
.S12     DC    A(0)                CHECKID ADDRESS                      74400017
         ST    &ID,4(0,1)          STORE CHECKID ADDRESS                75200017
         AIF   (T'&LNG EQ 'O').S14                                      76000017
.S13     AIF   ('&LNG'(1,1) EQ '(').S15      REGISTER FORM              76800017
         AIF   ('&LNG' EQ '''S''').S16                                  77600017
         MVI   4(1),&LNG           CHECKID LENGTH                       78400017
         AGO   .S17                                                     79200017
.S14     MVI   4(1),8              CHECKID LENGTH                       80000017
         AGO   .S17                                                     80800017
.S15     STC   &LNG,4(0,1)         CHECKID LENGTH                       81600017
         AGO   .S17                                                     82400017
.S16     MVI   4(1),255            CHECKID LENGTH                       83200017
.S17     AIF   ('&MF(1)' EQ 'E').S19                                    84000017
.S18     AIF   ('&DCB'(1,1) NE '(').S19                                 84800017
         ST    &DCB,0(0,1)         DCB ADDRESS                          85600017
.S19     SVC   63                                                       86400017
         MEXIT                                                          87200017
.ERR1    IHBERMAC   35,,&MF   INVALID MF OPND SPECIFIED                 88000017
         MEXIT                                                          88800017
.ERR2    IHBERMAC   69        INVALID REGISTER NOTATION WITH MF=L       89600017
         MEXIT                                                          90400017
.ERR3    IHBERMAC   06        DCB OPRND NOT SPECIFIED                   91200017
         MEXIT                                                          92000017
.ERR4    IHBERMAC   03        SECOND OPRND NOT SPECIFIED (CHECKID)      92800017
         MEXIT                                                          93200017
.ERR5    IHBERMAC   36,,&DCB       INVALID FIRST OPERAND                93600017
         MEXIT                                                          94400017
         MEND                                                           95200017
