*%/*                                                                    00060002
         MACRO                                                          00070002
&NAME    CIRB  &EP=,&KEY=PP,&MODE=PP,&STAB=,&SVAREA=NO,&WKAREA=0,&RETIQ*00100002
               E=YES,&TYPE=IRB,&ENABLE=YES,&BRANCH=NO,                 *00150002
               &RETRN=NO                                         YM4054 00170002
         LCLB  &B(9)                                             YM4054 00200002
         LCLC  &D                                                       00250002
         AIF   ('&TYPE' EQ 'IRB').IRBTP IS IT AN IRB?                   00300002
         AGO   .E7                                                      00320002
.IRBTP   ANOP                                                           00330002
&B(8)    SETB  1                                                        00340002
         AIF   ('&ENABLE' NE 'YES').E9                                  00348802
         AIF   ('&EP' EQ '').E1                                         00350002
&NAME    IHBINNRA ,&EP                                                  00400002
&B(1)    SETB  ('&KEY' EQ 'PP')                                         00450002
         AIF   (NOT &B(1) AND '&KEY' NE 'SUPR').E2                      00500002
&B(2)    SETB  ('&MODE' EQ 'PP')                                        00550002
         AIF   (NOT &B(2) AND '&MODE' NE 'SUPR').E3                     00600002
&B(3)    SETB  ('&SVAREA' EQ 'YES')                                     00650002
         AIF   (NOT &B(3) AND '&SVAREA' NE 'NO').E4                     00700002
&B(6)    SETB  ('&RETIQE' EQ 'NO')                                 A2C  00750002
         AIF   (NOT &B(6) AND '&RETIQE' NE 'YES').E6                    00800002
&B(9)    SETB  ('&RETRN' EQ 'YES')                               YM4054 00810002
         AIF   (NOT &B(9) AND '&RETRN' NE 'NO').E11              YM4054 00820002
         AIF   ('&STAB' EQ '').CONTX                                    00850002
.CONTA   AIF   (K'&STAB GT 3).CONTB                                     00900002
&B(4)    SETB  ('&STAB' EQ 'RE')                                        00950002
&B(5)    SETB  ('&STAB' EQ 'DYN')                                       01000002
         AGO   .THRU                                                    01050002
.CONTB   AIF   (K'&STAB GT 7).CONTC                                     01100002
&B(4)    SETB  ('&STAB' EQ '(RE)' OR '&STAB' EQ '(,RE)' OR '&STAB' EQ 'X01150002
               (RE,)')                                                  01200002
&B(5)    SETB  ('&STAB' EQ '(DYN)' OR '&STAB' EQ '(,DYN)' OR '&STAB' EQX01250002
                '(DYN,)')                                               01300002
         AGO   .THRU                                                    01350002
.CONTC   AIF   (K'&STAB NE 8).THRU                                      01400002
&B(4)    SETB  ('&STAB' EQ '(RE,DYN)' OR '&STAB' EQ '(DYN,RE)')         01450002
&B(5)    SETB  (&B(4))                                                  01500002
.THRU    AIF   (&B(4)+&B(5) EQ 0).E5                                    01550002
.CONTX   AIF   ('&WKAREA'(1,1) EQ '(').REG                              01600002
         CNOP  0,4                                                      01650002
         B     *+8                               BRANCH AROUND CONST.   01700002
         DC    BL2'&B(7)&B(8)000&B(1)&B(2)&B(3).0000&B(6)&B(9)&B(5).0'  01750002
.*                                                               YM4054 01755002
         DC    AL1(0)                            RESERVED               01760002
         DC    AL1(&WKAREA)                      WORK AREA SIZE         01800002
         L     1,*-4                             LOAD REG 1 WITH CONST. 01850002
         AGO   .END                                                     01900002
.REG     B     *+6                               BRANCH AROUND FLAGS    01950002
         DC    BL2'&B(7)&B(8)000&B(1)&B(2)&B(3).0000&B(6)&B(9)&B(5).0'  02000002
.*                                                               YM4054 02005002
         LR    1,&WKAREA(1)    GET WORK AREA SIZE                       02010002
         ICM   1,12,*-4  INSERT MASK                                    02020002
.END     ANOP                                                           02070002
         AIF   ('&BRANCH' EQ 'NO').SVC                                  02120002
         AIF   ('&BRANCH' EQ 'YES').BRANCH                              02170002
         AGO   .E10                                                     02180002
.SVC     SVC   43                                ISSUE CIRB SVC         02200002
         MEXIT                                                          02250002
.BRANCH  ANOP                                                           02260002
         L     15,CVTPTR(0,0) GET CVT ADDRESS                    YM1995 02270002
         L     15,CVTS1EE-CVTMAP(15,0) GET ADDR OF IGC043BR      YM1995 02280002
         BALR  14,15     CALL CIRB                                      02290002
         MEXIT                                                          02292002
.E1      IHBERMAC 27,408                                                02300002
         MEXIT                                                          02350002
.E2      ANOP                                                           02400002
&D       SETC  'KEY=&KEY'                                               02450002
         AGO   .OUT                                                     02500002
.E3      ANOP                                                           02550002
&D       SETC  'MODE=&MODE'                                             02600002
         AGO   .OUT                                                     02650002
.E4      ANOP                                                           02700002
&D       SETC  'SVAREA=&SVAREA'                                         02750002
         AGO   .OUT                                                     02800002
.E5      ANOP                                                           02850002
&D       SETC  'STAB=&STAB'                                             02900002
         AGO   .OUT                                                     02950002
.E6      ANOP                                                           03000002
&D       SETC  'RETIQE=&RETIQE'                                         03050002
.OUT     IHBERMAC 54,408,&D                                             03100002
         MEXIT                                                          03102002
.E7      ANOP                                                           03110002
&D       SETC  'TYPE=&TYPE'                                             03120002
         AGO   .OUT                                                     03130002
.E9      ANOP                                                           03146002
&D       SETC  'ENABLE=&ENABLE'                                         03148002
         AGO   .OUT                                                     03148402
.E10     ANOP                                                           03148802
&D       SETC  'BRANCH=&BRANCH'                                         03149202
         AGO   .OUT                                                     03149602
.E11     ANOP                                                    YM4054 03149702
&D       SETC  'RETRN=&RETRN'                                    YM4054 03149802
         AGO   .OUT                                              YM4054 03149902
         MEND                                                           03150002
**/                                                                     03200002
*  CIRB :  /*                                                        */ 03250002
*          /*      CIRB      MVM--AOS/2                              */ 03300002
*          /*                                                        */ 03350002
*          MACRO KEYS(                                                  03400002
*                     EP,         /*ENTRY POINT OF EXIT ROUTINE      */ 03450002
*                     TYPE,       /* TYPE OF IRB                     */ 03460002
*                     KEY,        /*KEY OF EXIT ROUTINE              */ 03500002
*                     MODE,       /*MODE OF ASYNCHRONOUS EXIT        */ 03550002
*                     SVAREA,     /*SAVE AREA OPTION                 */ 03600002
*                     WKAREA,     /*SIZE OF WORK AREA                */ 03650002
*                     STAB,       /*DISPOSITION OF RB                */ 03700002
*                     RETIQE,     /*INDICATES SCHEDULING OF ROUTINE  */ 03750002
*                     BRANCH,     /* BRANCH ENTRY                    */ 03760002
*                     RETRN       /*IQES CAN BE RETURNED       YM4054*/ 03780002
*                           );                                          03800002
*        ANS('?'||MACLABEL||'CIRBP '||MACLIST||MACKEYS||';');           03850002
*%END;                                                                  03900002
