         MACRO                                                          08000013
&NAME    CKREQ                                                          16000013
.* 200000-220000,810000-840000                                    20002 20000020
.* D180000,D220000-810000,C820000                              @Y17XAFS 21000010
         ANOP                                                           82000010
&NAME    DS    0H .                                               20002 83000020
         LINK  EP=IEDQNB .              CKPT INTERFACE ROUTINE    20002 85000020
         MEND                                                           88000013
