         MACRO                                                          00020003
&NAME    CNTRL &DCB,&CODE,&NO,&NTMKS=,&NTMKSA=,&MKCODE=,        XL03127,00040003
               &MKCODEA=,&LNNUM=,&LNNUMA=                       XL03127 00050003
         LCLA  &CTR,&BAL0                                       XL03127 00060003
         LCLB  &B(16),&D2,&D3,&KWD(6)                           XL03127 00080003
         LCLC  &SIGN                                            XL03127 00090003
         AIF   ('&DCB' EQ '').E1                                        00100003
         AIF   ('&CODE' EQ 'LT').CMR1A                                  00110019
&NAME    IHBINNRA &DCB                      LOAD DCB ADDR IN REG 1      00120000
         AIF   ('&CODE' EQ 'DIS').AROUND                                00130019
.CHKNO   AIF   ('&CODE' EQ '').E2                                       00140000
         AIF   (K'&CODE EQ 3).CONTON                                    00150019
         AIF   (K'&CODE LT 2).E4                                        00155020
         AIF   ('&CODE'(1,1) NE 'S').CONTON                             00160000
         AIF   ('&NO' EQ '').E3                                         00180000
         AIF   (T'&NO NE 'N').E5                                        00183017
&CTR     SETA  &NO                                                      00186017
         AIF   ('&CODE'(2,1) EQ 'S' AND &CTR GT 2 OR '&CODE'(2,1) EQ 'P'00189017
               '  AND &CTR GT 3 OR '&CODE'(2,1) EQ 'K' AND &CTR GT 12 OR00192017
               R &CTR LT 1).E5                                          00195017
         AIF   ('&NO' EQ '&NO(1)').CONTA                                00200000
         IHBINNRA ,&NO                      LOAD  NO IN REG 0           00220000
         AGO   .CHKCODE                                                 00240000
.CONTA   IHBINNRA ,&NO.(0,0)                                            00260000
.CHKCODE AIF   ('&CODE' EQ 'SP' OR '&CODE' EQ 'SS').OUT                 00280000
         AIF   ('&CODE' NE 'SK').E4                                     00300000
         LCR   0,0                               INDICATE SK ACTION     00320000
         AGO   .OUT                                                     00340000
.CONTON  AIF   ('&CODE' EQ 'BSR' OR '&CODE' EQ 'FSR').CONTX             00350019
         AIF   ('&CODE' NE 'BSM' AND '&CODE' NE 'FSM').CZCODE           00360019
         AIF   ('&NO' NE '').E5                                         00380000
         AGO   .AROUND                                                  00400000
.CONTX   AIF   ('&NO' EQ '').USEONE                                     00420000
         AIF   ('&NO'(1,1) EQ '(').REG                                  00440000
         AIF   (T'&NO NE 'N').NOREG                                     00460000
         AIF   (&NO GT 4095).NOREG                                      00480000
         LA    0,&NO.(0,0)                       LOAD REG 0 WITH NO.    00500000
         AGO   .AROUND                                                  00520000
.USEONE  LA    0,1(0,0)                          ONE ASSUMED FOR NO.    00540000
         AGO   .AROUND                                                  00560000
.REG     LR    0,&NO(1)                          LOAD REG 0 WITH NO.    00580000
         AGO   .AROUND                                                  00600000
.NOREG   B     *+6                               BRANCH AROUND NUMBER   00620000
         DC    AL2(&NO)                          NUMBER OF BLOCKS       00640000
         LH    0,*-2                             LOAD REG 0 WITH NO.    00660000
.AROUND  L     15,84(1,0)                        LOAD CONTROL ROUT.ADDR 00680000
         AIF   ('&CODE' NE 'DIS').AROUND1                               00685019
         BAL   14,4(15)                 LINK TO CONTROL RTN             00690019
         AGO   .END                                                     00695019
.AROUND1  BALR  14,15                                                   00700020
.CZCODE  ANOP                                                           00710019
&B(1)    SETB  ('&CODE' EQ 'BSR')                                       00720000
&B(2)    SETB  ('&CODE' EQ 'BSM')                                       00740000
&B(3)    SETB  ('&CODE' EQ 'FSR')                                       00760000
&B(4)    SETB  ('&CODE' EQ 'FSM')                                       00780000
&B(5)    SETB  ('&CODE' EQ 'ESD')                                       00782019
&B(6)    SETB  ('&CODE' EQ 'RKB')                                       00784019
&B(7)    SETB  ('&CODE' EQ 'HDR')                                       00786019
&B(8)    SETB  ('&CODE' EQ 'MKL')                                       00788019
&B(9)    SETB  ('&CODE' EQ 'INC')                                       00790019
&B(10)   SETB  ('&CODE' EQ 'EJD')                                       00792019
&B(11)   SETB  ('&CODE' EQ 'SSD')                                       00794019
&B(12)   SETB  ('&CODE' EQ 'ESP')                               XL03127 00796003
&B(13)   SETB  ('&CODE' EQ 'LMK')                               XL03127 00796403
&B(14)   SETB  ('&CODE' EQ 'DMK')                               XL03127 00796803
&B(15)   SETB  ('&CODE' EQ 'ENG')                               XL03123 00796903
&B(16)   SETB  ('&CODE' EQ 'DSG')                               XL03123 00798703
         AIF   (&B(1)+&B(2)+&B(3)+&B(4)+&B(5)+&B(6)+&B(7)+&B(8)+&B(9)+&X00804203
               B(10)+&B(11)+&B(12)+&B(13)+&B(14)+&B(15)+&B(16) NE      ,00806003
               1).E4                                            XL03127 00806403
&CTR     SETA  39*&B(1)+47*&B(2)+55*&B(3)+63*&B(4)+4*(&B(5)+&B(12)+&B(1,00807803
               5))+8*(&B(6)+&B(13)+&B(16))+12*(&B(7)+&B(14))+16*&B(8)+2,00808203
               0*&B(9)+24*&B(10)+28*&B(11)                      XL03123 00809603
         AIF   (&B(1) OR &B(2) OR &B(3) OR &B(4)).CONTB                 00813203
         CNOP  0,4                                                      00815003
&BAL0    SETA  8+4*(&B(12)+&B(14))+8*&B(13)                     XL03127 00816803
         BAL   0,*+&BAL0                                                00820403
         DC    AL1(&CTR)                                                00822203
         AIF   (NOT (&B(5) OR &B(7) OR &B(11) OR &B(12))).CONTC XL03127 00824003
         AIF   ('&NO' EQ '').E3                                         00825803
         AIF   (&B(7) OR T'&NO NE 'N').CONTA90                  XL03127 00827603
         AIF   (&NO LT 1 OR &NO GT 4 OR &B(12)*&NO GT 2).E5     XL03127 00830003
.CONTA90 DC    AL3(&NO)                                                 00833003
         AGO   .CONTC10                                         XL03127 00836003
.CONTC   DC    AL3(0)                                                   00839019
.CONTC10 AIF   (NOT (&B(12) OR &B(13) OR &B(14))).OUT           XL03127 00841003
&KWD(1)  SETB  ('&NTMKS' NE '')                                 XL03127 00841403
&KWD(2)  SETB  ('&NTMKSA' NE '')                                XL03127 00841803
&KWD(3)  SETB  ('&MKCODE' NE '')                                XL03127 00842003
&KWD(4)  SETB  ('&MKCODEA' NE '')                               XL03127 00846403
&KWD(5)  SETB  ('&LNNUM' NE '')                                 XL03127 00848403
&KWD(6)  SETB  ('&LNNUMA' NE '')                                XL03127 00850403
         AIF   (NOT (&B(12) OR &KWD(3) OR &KWD(4))).E8          XL03127 00850803
         AIF   (&KWD(1)+&KWD(2)+&KWD(3)+&KWD(4) GT 1).E9        XL03127 00850903
         AIF   (&KWD(1)+&KWD(2)+&KWD(3)+&KWD(4) EQ 0).CONTC27   XL03127 00851303
&D2      SETB  ('&NTMKS&NTMKSA&MKCODE&MKCODEA'(1,1) EQ '(')     XL03127 00853303
         AIF   (&D2).CONTC27                                    XL03127 00853403
         AIF   (T'&NTMKS NE 'N').CONTC20                        XL03127 00853703
         AIF   (&NTMKS LT 1 OR &NTMKS GT 33).E10                XL03127 00854103
.CONTC20 AIF   (T'&MKCODE NE 'N').CONTC22                       XL03127 00854503
         AIF   (&MKCODE LT 1 OR &MKCODE GT 15).E11              XL03127 00854603
.CONTC22 ANOP                                                           00854703
&SIGN    SETC  '+'                                              XL03127 00854903
         AIF   (&KWD(2) OR &KWD(4)).CONTC25                     XL03127 00855203
&SIGN    SETC  '-'                                              XL03127 00855503
.CONTC25 DC    A(0&SIGN&NTMKS&NTMKSA&MKCODE&MKCODEA)                    00855803
         AGO   .CONTC30                                         XL03127 00856703
.CONTC27 DC    A(0)                                                     00856803
.CONTC30 AIF   (NOT &B(13)).CONTC40                             XL03127 00856903
         AIF   (&KWD(5)+&KWD(6) GT 1).E9                        XL03127 00857003
         AIF   (&KWD(5)+&KWD(6) EQ 0).CONTC37                   XL03127 00857303
&D3      SETB  ('&LNNUM&LNNUMA'(1,1) EQ '(')                            00857603
         AIF   (&D3).CONTC37                                    XL03127 00858003
&SIGN    SETC  '+'                                              XL03127 00858403
         AIF   (&KWD(6)).CONTC35                                XL03127 00858803
&SIGN    SETC  '-'                                              XL03127 00858903
         AIF   (T'&LNNUM NE 'N').CONTC35                        XL03127 00859403
         AIF   (&LNNUM LT 1 OR &LNNUM GT 33).E12                XL03127 00859503
.CONTC35 DC    A(0&SIGN&LNNUM&LNNUMA)                                   00859603
         AGO   .CONTC40                                         XL03127 00859703
.CONTC37 DC    A(0)                                                     00859803
.CONTC40 AIF   (NOT &D2).CONTC50                                XL03127 00860003
&CTR     SETA  4+4*&B(13)+2*(&KWD(1)+&KWD(3))                   XL03127 00860803
         AIF   (&KWD(2) OR &KWD(4)).CONTC45                     XL03127 00861003
         LNR   14,&NTMKS(1)&MKCODE(1)   INDICATE DIGIT                  00861103
         ST    14,*-&CTR                                                00861203
         AGO   .CONTC50                                         XL03127 00861303
.CONTC45 ST    &NTMKSA(1)&MKCODEA(1),*-&CTR                             00861503
.CONTC50 AIF   (NOT &D3).OUT                                    XL03127 00861903
&CTR     SETA  4+2*(&D2*(&KWD(1)+&KWD(3)+2)+&KWD(5))            XL03127 00863303
         AIF   (&KWD(6)).CONTC55                                XL03127 00863403
         LNR   14,&LNNUM(1)             INDICATE DIGIT                  00863803
         ST    14,*-&CTR                                                00864203
         AGO   .OUT                                             XL03127 00864303
.CONTC55 ST    &LNNUMA(1),*-&CTR                                        00864403
         AGO   .OUT                                                     00864603
.CONTB   DC    AL2(&CTR)                ACTION QUALIFIER                00864703
         AGO   .END                                                     00864803
.CMR1A   ANOP                                                           00864903
         CNOP  0,4                                                      00865003
&NAME    BAL   1,*+12                   BRANCH AROUND LIST              00865103
         AIF   ('&DCB'(1,1) EQ '(').MREGD                               00865203
         DC    A(&DCB)                  DCB ADDRESS                     00865303
.CMR1B   AIF   ('&NO' EQ '').E3                                         00865403
         AIF   ('&NO'(1,1) EQ '(').MREGL                                00866403
         DC    A(&NO)                   LIGHT BUCKET ADDRESS            00867803
         AIF   (&D2).CMR2A                                              00869203
.CMR1F   L     14,0(1,0)                LOAD DCB ADDRESS                00870603
         L     15,84(14,0)              LOAD CNTRL RTN ADDRESS          00872003
.CMR1D   BALR  14,15                    BRANCH TO CNTRL RTN             00873403
         MEXIT                                                          00874803
.MREGD   ANOP                                                           00876203
         AIF   ('&DCB' EQ '(1)').E6     REG 1 CANNOT BE USED FOR DCB    00877603
         DC    A(0)                     DCB ADDRESS                     00879003
&D2      SETB  1                                                        00880403
         AGO   .CMR1B                                                   00881803
.MREGL   ANOP                                                           00883203
         AIF   ('&NO' EQ '(1)').E7      REG 1 CANNOT BE USED FOR LT     00884603
         DC    A(0)                     LIGHT BUCKET ADDRESS            00886003
&D3      SETB  1                                                        00887403
         AIF   (NOT &D2).CMR1C                                          00888803
.CMR2A   ST    &DCB(1),0(1)             STORE DCB ADDRESS IN LIST       00890203
.CMR1C   AIF   (NOT &D3).CMR1E                                          00891603
         ST    &NO(1),4(1)              STORE LIGHT BUCKET ADDR IN LIST 00893003
.CMR1E   AIF   (NOT &D2).CMR1F                                          00894403
         L     15,84(&DCB(1))           LOAD CNTRL RTN ADDRESS          00895803
         AGO   .CMR1D                                                   00897203
.OUT     L     15,84(1,0)                        LOAD CONTROL ROUT.ADDR 00898603
         BALR  14,15                             LINK TO CONTROL ROUT.  00900000
         MEXIT                                                          00920000
.E1      IHBERMAC 6,024                     DCB MISSING                 00940000
         AGO   .CHKNO                                                   00960020
.E2      IHBERMAC 3,024                     PARAM TWO MISSING           00980000
         MEXIT                                                          01000000
.E3      IHBERMAC 4,024                     PARAM THREE MISSING         01020000
         MEXIT                                                          01040000
.E4      IHBERMAC 37,024,&CODE                                          01060000
         MEXIT                                                          01080000
.E5      IHBERMAC 38,,&NO                                               01100000
         MEXIT                                                          01104019
.E6      IHBERMAC  36,,&DCB             REG 1 INVALID FOR DCB           01108019
         MEXIT                                                          01112019
.E7      IHBERMAC  38,,&NO              REG 1 INVALID FOR LT            01116019
         MEXIT                                                  XL03127 01118003
.E8      IHBERMAC 24                    REQUIRED OPND NOT SPEC  XL03127 01118403
         MEXIT                                                  XL03127 01118803
.E9      IHBERMAC 171                   INCONSISTENT OPERAND    XL03127 01119203
         MEXIT                                                  XL03127 01169203
.E10     IHBERMAC 273,,&NTMKS           INVALID OPERAND         XL03127 01219203
         MEXIT                                                  XL03127 01269203
.E11     IHBERMAC 271,,&MKCODE          INVALID OPERAND         XL03127 01269303
         MEXIT                                                  XL03127 01269603
.E12     IHBERMAC 267,,&LNNUM           INVALID OPERAND         XL03127 01319603
.END     MEND                                                   XL03127 01369603
