         MACRO                                                          01000010
&NAME    COMMBUF  &LIST=,&MAXDEEP=                                      02000010
         GBLA  &IEDQZE(64),&IEDQZD,&IEDQZK                              03000010
         GBLB  &IEDQZA(64)                                              04000010
         LCLB  &NOGO                                                    05000010
         LCLC  &C                                                       06000010
.*       VERSION DATED APRIL 18,1972                                    07000010
         SPACE 2                                                        08000010
         AIF   (&IEDQZA(3) OR (&IEDQZA(1) AND (NOT &IEDQZA(5))) AND (NOX09000010
               T &IEDQZA(14))).SEQOK                                    10000010
         MNOTE 12,'*** IHB070 SEQUENCE ERROR - MUST FOLLOW INHDR OR INB*11000010
               UF MACRO'                                                12000010
&NOGO    SETB  1                                                        13000010
.SEQOK   ANOP                                                           14000010
         AIF   (&IEDQZA(44)).EXP                                        15000010
         MNOTE 8,'*** IHB233 INCONSISTENT WITH COMMBUF OPERAND OF THE IX16000010
               NTRO MACRO'                                              17000010
.EXP     ANOP                                                           18000010
         AIF   ('&LIST' NE '').OP1                                      19000010
         MNOTE 12,'*** IHB001 LIST OPERAND REQ''D-NOT SPECIFIED'        20000010
&NOGO    SETB  1                                                        21000010
         AGO   .LISTOK                                                  22000010
.OP1     ANOP                                                           23000010
         IEDQCHAR  8,&LIST                                              24000010
         AIF   (&IEDQZA(24)).ERR1                                       25000010
         AIF   ('&LIST'(1,1) GE 'A' AND '&LIST'(1,1) LE 'Z').LISTOK     26000010
.ERR1    MNOTE 12,'*** IHB300 LIST OPERAND INVALID AS SPECIFIED'        27000010
&NOGO    SETB  1                                                        28000010
.LISTOK  ANOP                                                           29000010
         AIF   ('&MAXDEEP' NE '').CHK                                   30000010
         MNOTE 12,'*** IHB001 MAXDEEP OPERAND REQ''D-NOT SPECIFIED'     31000010
&NOGO    SETB  1                                                        32000010
         AGO   .MAXOK                                                   33000010
.CHK     ANOP                                                           34000010
         AIF   ('&MAXDEEP'(1,1) LT '1' OR '&MAXDEEP'(1,1) GT '9').MAXER 35000010
         AIF   ('&MAXDEEP' LT '1' OR '&MAXDEEP' GT '65535').MAXER       36000010
         IEDQMASK  &MAXDEEP,2                                           37000010
         AIF   (NOT &IEDQZA(24)).MAXOK                                  38000010
.MAXER   MNOTE 12,'*** IHB300 MAXDEEP OPERAND INVALID AS SPECIFIED'     39000010
&NOGO    SETB  1                                                        40000010
.MAXOK   ANOP                                                           41000010
         AIF   (&NOGO).MEND                                             42000010
         IEDQVCON  58,IEDQBV                                            43000010
         CNOP  0,4                                                      44000010
         BAL   1,*+12                                                   45000010
&NAME    DC    AL1(&IEDQZE(58)),AL1(8) .                                46000010
         DC    AL2(&MAXDEEP) .          MAXDEEP VALUE                   47000010
&C       SETC  '&SYSECT'                                                48000010
IEDQMISC CSECT                                                          49000010
         DC    C'&LIST'                                                 50000010
&C       CSECT                                                          51000010
         DC    AL1(&IEDQZD),AL3(IEDQMISC+&IEDQZK)                       52000010
&IEDQZK  SETA  &IEDQZK+&IEDQZD                                          52500010
         L     15,IEDUI                                                 53000010
         BALR  14,15                                                    54000010
.MEND    SPACE 2                                                        55000010
         MEND                                                           56000010
