         MACRO                                                          01000019
&NAME    CONFIGUR &CORE=16,&PC=NO,&INQDISP=NO,&GDU=,&FUNCERR=,&ENDERR=,X02000002
               &MONERR=,&GETID=,&STORID=,&IDCOUNT=                      02200002
         GBLA  &IECGID,&IECIDTF                                         02400002
.*             IECGID    NUMBER OF GDU IDENTIFIERS                      02600002
.*             IECIDTF   SIZE OF GDU IDENTIFIER TABLE                   02800002
         GBLB  &IECSW(9),&IECSEQ(10)                              21094 03000021
.*             IECSW(1)    GBL SWITCH INDICATING  CORE SIZE             04000019
.*             IECSEQ(1)   SEQUENCE INDICATOR                           05000019
.*             IECSW(9) ON INDICATES PULSE COUNT                  21094 05500021
         GBLB  &IECIN,&IECSQ(7)                                         06000002
.*             IECIN    INDICATES INQUIRY DISPLAY IN SYSTEM             06100002
         GBLB  &IECGDSW                                                 06200002
.*             IECGDSW  INDICATES GDU=YES CODED                         06300002
         LCLA  &A,&B,&C                                                 06400002
         LCLB  &INVSW(16)                                               06500002
         LCLB  &PRESW(16)                                               06600002
         LCLB  &MONSW(16)                                               06700002
         LCLB  &NCODE                                                   07000019
         LCLC  &CHAR                                                    08000019
&IECSEQ(1) SETB 1                                                       09000019
         AIF   (&IECSEQ(1) AND NOT&IECSEQ(2) AND NOT&IECSEQ(3) AND NOT X10000019
               &IECSEQ(4) AND NOT&IECSEQ(5) AND NOT &IECSEQ(6)).SEQOK   11000019
.SEQ2    ANOP                                                           11500002
&NCODE   SETB  1                                                        12000019
         MNOTE 12,'MACRO SEQUENCE ERROR'                                13000019
         AGO   .SEQ1                                                    13500002
.SEQOK   ANOP                                                           14000019
         AIF   (NOT &IECSQ(1) AND NOT &IECSQ(2) AND NOT &IECSQ(3) AND  X14100002
               NOT &IECSQ(4) AND NOT &IECSQ(5)).SEQ5                    14200002
         AGO   .SEQ2                                                    14300002
.SEQ5    ANOP                                                           14400002
         AIF   (NOT &IECSQ(6)).SEQ1                                     14500002
         AGO   .SEQ2                                                    14600002
.SEQ1    ANOP                                                           14700002
&IECSW(1) SETB (&CORE EQ 32)                                            15000019
         AIF   (&CORE EQ 16 OR &CORE EQ 32).OKCORE                      16000019
&NCODE   SETB  1                                                        17000019
         MNOTE 12,'CORE=&CORE INCORRECTLY SPECIFIED'                    18000019
.OKCORE  AIF   ('&PC' EQ 'NO' OR '&PC' EQ 'YES').OKPC             21094 18100021
         AIF   (T'&PC EQ 'O').OKPC                                21094 18200021
&NCODE   SETB  1                                                  21094 18300021
         MNOTE 12,'PC=&PC INCORRECTLY SPECIFIED'                  21094 18400021
.OKPC    AIF   ('&PC' NE 'YES').NOTPC                             21094 18500021
         AIF   (NOT&IECSW(1)).NOTPC1                              21094 18600021
&IECSW(9) SETB 1                                                  21094 18700021
         AGO   .NOTPC                                             21094 18800021
.NOTPC1  ANOP                                                     21094 18900021
         AIF   (&IECSW(1)).NOTPC                                  21094 19000021
         MNOTE 12,'CORE=32 IS REQUIRED IF PC=YES'                 21094 19100021
&NCODE   SETB  1                                                  21094 19200021
.NOTPC   ANOP                                                           19300002
         AIF   (T'&INQDISP EQ 'O').OKIN1                                19303002
&IECIN   SETB  ('&INQDISP' EQ 'YES')                                    19306002
         AIF   ('&INQDISP' EQ 'NO' OR '&INQDISP' EQ 'YES').OKIN         19309002
&NCODE   SETB  1                                                        19312002
         MNOTE 12,'INQDISP=&INQDISP INCORRECTLY SPECIFIED'              19315002
.OKIN    ANOP                                                           19318002
         AIF   ('&INQDISP' NE 'YES').OKIN1                              19321002
         AIF   (&CORE EQ 32).OKIN1                                      19324002
&NCODE   SETB  1                                                        19327002
         MNOTE 12,'CORE=32 IS REQUIRED IF INQDISP=YES'                  19330002
.OKIN1   ANOP                                                           19333002
         AIF   ('&GDU' EQ 'NO' OR '&GDU' EQ 'YES').OKGDU                19336002
         AIF   (T'&GDU EQ 'O').OKGDU                                    19339002
&NCODE   SETB  1                                                        19342002
         MNOTE 12,'GDU=&GDU INCORRECTLY SPECIFIED'                      19345002
.OKGDU   ANOP                                                           19348002
         AIF   ('&GDU' NE 'YES').NOTGDU                                 19351002
&IECGDSW SETB  1                                                        19354002
.NOTGDU  ANOP                                                           19357002
&C       SETA  N'&FUNCERR                                               19360002
         AIF   (T'&FUNCERR EQ 'O' AND &C EQ 0).PRET                     19363002
         AIF   (&IECGDSW).FINE                                          19366002
&NCODE   SETB  1                                                        19369002
         MNOTE 12,'GDU=YES MUST BE CODED IF FUNCERR IS CODED'           19372002
.FINE    ANOP                                                           19375002
         AIF   (&C GE 1 AND &C LE 16).INV                               19378002
&NCODE   SETB  1                                                        19381002
         MNOTE 12,'NUMBER OF SUBOPERANDS IN FUNCERR OPERAND            X19384002
               INVALID'                                                 19387002
.INV     ANOP                                                           19390002
&B       SETA  1                                                        19393002
.INV3    ANOP                                                           19396002
         AIF   (T'&FUNCERR(&B) EQ 'N').INV1                             19399002
&NCODE   SETB  1                                                        19402002
&CHAR    SETC  '&FUNCERR(&B)'                                           19405002
         MNOTE 12,'FUNCERR SUBOPERAND = &CHAR INVALID'                  19408002
         AGO   .INV19                                                   19411002
.INV1    ANOP                                                           19414002
         AIF   (&FUNCERR(&B) GE 1 AND &FUNCERR(&B) LE 16).INV2          19417002
&NCODE   SETB  1                                                        19420002
&CHAR    SETC  '&FUNCERR(&B)'                                           19423002
         MNOTE 12,'FUNCERR SUBOPERAND = &CHAR NOT IN VALID RANGE OF 1  X19426002
               TO 16'                                                   19429002
         AGO   .INV19                                                   19432002
.INV2    ANOP                                                           19435002
&A       SETA  &FUNCERR(&B)                                             19438002
&INVSW(&A) SETB 1                                                       19441002
.INV19   ANOP                                                           19444002
         AIF   (&B EQ &C).PRET     IF LAST SUBOPERAND,BRANCH            19447002
&B       SETA  &B+1                                                     19450002
         AGO   .INV3    CONTINUE CHECKING GINVFCT OPERAND               19453002
.PRET    ANOP                                                           19456002
&C       SETA  N'&ENDERR                                                19459002
         AIF   (T'&ENDERR EQ 'O' AND &C EQ 0).MON                       19462002
         AIF   (&IECGDSW).FINE1                                         19465002
&NCODE   SETB  1                                                        19468002
         MNOTE 12,'GDU=YES MUST BE CODED IF ENDERR OPERAND CODED'       19471002
.FINE1   ANOP                                                           19474002
         AIF   (&C GE 1 AND &C LE 16).PRET1                             19477002
&NCODE   SETB  1                                                        19480002
         MNOTE 12,'NUMBER OF SUBOPERANDS IN ENDERR OPERAND INVALID'     19483002
.PRET1   ANOP                                                           19486002
&B       SETA  1                                                        19489002
.PRET2   ANOP                                                           19492002
         AIF   (T'&ENDERR(&B) EQ 'N').PRET3                             19495002
&NCODE   SETB  1                                                        19498002
&CHAR    SETC  '&ENDERR(&B)'                                            19501002
         MNOTE 12,'ENDERR SUBOPERAND = &CHAR INVALID'                   19504002
         AGO   .PRET20                                                  19507002
.PRET3   ANOP                                                           19510002
         AIF   (&ENDERR(&B) GE 1 AND &ENDERR(&B) LE 16).PRET4           19513002
&NCODE   SETB  1                                                        19516002
&CHAR    SETC  '&ENDERR(&B)'                                            19519002
         MNOTE 12,'ENDERR SUBOPERAND = &CHAR NOT IN VALID RANGE OF     X19522002
               1 TO 16'                                                 19525002
         AGO   .PRET20                                                  19528002
.PRET4   ANOP                                                           19531002
&A       SETA  &ENDERR(&B)                                              19534002
&PRESW(&A) SETB 1                                                       19537002
.PRET20  ANOP                                                           19540002
         AIF   (&B EQ &C).MON    IF LAST SUBOPERAND,BRANCH              19543002
&B       SETA  &B+1                                                     19546002
         AGO   .PRET2         CONTINUE CHECKING GPRETRM OPERAND         19549002
.MON     ANOP                                                           19552002
&C       SETA  N'&MONERR                                                19555002
         AIF   (T'&MONERR EQ 'O' AND &C EQ 0).IDCOUNT            YM0972 19558002
         AIF   (&IECGDSW).FINE2                                         19561002
&NCODE   SETB  1                                                        19564002
         MNOTE 12,'GDU=YES MUST BE CODED IF MONERR OPERAND CODED'       19567002
.FINE2   ANOP                                                           19570002
         AIF   (&C GE 1 AND &C LE 16).MON1                              19573002
&NCODE   SETB  1                                                        19576002
         MNOTE 13,'NUMBER OF SUBOPERANDS IN MONERR OPERAND INVALID'     19579002
.MON1    ANOP                                                           19582002
&B       SETA  1                                                        19585002
.MON2    ANOP                                                           19588002
         AIF   (T'&MONERR(&B) EQ 'N').MON3                              19591002
&NCODE   SETB  1                                                        19594002
&CHAR    SETC  '&MONERR(&B)'                                            19597002
         MNOTE 12,'MONERR SUBOPERAND = &CHAR INVALID'                   19600002
         AGO   .MON20                                                   19603002
.MON3    ANOP                                                           19606002
         AIF   (&MONERR(&B) GE 1 AND &MONERR(&B) LE 16).MON4            19609002
&NCODE   SETB  1                                                        19612002
&CHAR    SETC  '&MONERR(&B)'                                            19615002
         MNOTE 12,'MONERR SUBOPERAND = &CHAR NOT IN VALID RANGE OF     X19618002
               1 TO 16'                                                 19621002
         AGO   .MON20                                                   19624002
.MON4    ANOP                                                           19627002
&A       SETA  &MONERR(&B)                                              19630002
&MONSW(&A) SETB 1                                                       19633002
.MON20   ANOP                                                           19636002
         AIF   (&B EQ &C).IDCOUNT   IF LAST SUBOPERAND,BRANCH    YM0972 19639002
&B       SETA  &B+1                                                     19642002
         AGO   .MON2                                                    19645002
.IDCOUNT ANOP                                                    YM0972 19647002
         AIF   (T'&IDCOUNT EQ '0').LIST1   BYPASS CHECKING       YM0972 19647402
         AIF   (&IDCOUNT EQ 0).LIST1       STORE ID, GET ID      YM0972 19647802
         AIF   (&IECGDSW).GETID            BR IF GDU=YES         YM0972 19647902
&NCODE   SETB  1                                                 YM0972 19652502
         MNOTE 12,'GDU=YES MUST BE CODED IF IDCOUNT IS CODED'    YM0972 19662502
.GETID   ANOP                                                           19664202
         AIF   (T'&GETID EQ 'O').L                               YM0972 19668802
         AIF   (&IECGDSW).FINE3                                         19673402
&NCODE   SETB  1                                                        19678002
         MNOTE 12,'GDU=YES MUST BE CODED IF GETID IS CODED'             19682602
.FINE3   ANOP                                                           19687202
&A       SETA  0                                                        19691802
.FINE3A  ANOP                                                           19696402
&A       SETA  &A+1                                                     19701002
         AIF   ('&GETID' EQ '*616B6F7A7B7C7E7F7F7F7F7F'(2*&A,2)).ST     19705602
         AIF   ('&GETID' EQ '*051525404B4E505A5B5C5E60'(2*&A,2)).ST     19710202
         AIF   ('&GETID' EQ '*D6D7D8D9E2E3E4E5E6E7E8E9'(2*&A,2)).ST     19714802
         AIF   ('&GETID' EQ '*C3C4C5C6C7C8C9D1D2D3D4D5'(2*&A,2)).ST     19719402
         AIF   ('&GETID' EQ '*F0F1F2F3F4F5F6F7F8F9C1C2'(2*&A,2)).ST     19724002
         AIF   (&A LT 12).FINE3A                                        19728602
&NCODE   SETB  1                                                        19733202
         MNOTE 12,'GETID OPERAND INVALID'                               19737802
.ST      ANOP                                                           19742402
.STORID  ANOP                                                           19747002
         AIF   (T'&STORID EQ 'O').L                              YM0972 19751602
         AIF   (&IECGDSW).FINE4                                         19756202
&NCODE   SETB  1                                                        19760802
         MNOTE 12,'GDU=YES MUST BE CODED IF STORID OPERAND CODED'       19765402
.FINE4   ANOP                                                           19770002
&A       SETA  0                                                        19774602
.FINE4A  ANOP                                                           19779202
&A       SETA  &A+1                                                     19783802
         AIF   ('&STORID' EQ '*616B6F7A7B7C7E7F7F7F7F7F'(2*&A,2)).L     19788402
         AIF   ('&STORID' EQ '*051525404B4E505A5B5C5E60'(2*&A,2)).L     19793002
         AIF   ('&STORID' EQ '*D6D7D8D9E2E3E4E5E6E7E8E9'(2*&A,2)).L     19797602
         AIF   ('&STORID' EQ '*C3C4C5C6C7C8C9D1D2D3D4D5'(2*&A,2)).L     19802202
         AIF   ('&STORID' EQ '*F0F1F2F3F4F5F6F7F8F9C1C2'(2*&A,2)).L     19806802
         AIF   (&A LT 12).FINE4A                                        19811402
&NCODE   SETB  1                                                        19816002
         MNOTE 12,'STORID OPERAND INVALID'                              19820602
.L       ANOP                                                           19825202
.FINE5   ANOP                                                           19885002
         AIF   (T'&GETID NE 'O' AND T'&STORID NE 'O').LIST1             19889602
&NCODE   SETB  1                                                        19894202
         MNOTE 12,'GETID AND STORID OPERANDS MUST BOTH BE CODED IF     X19898802
               IDCOUNT IS NOT OMITTED OR 0'                             19903402
.LIST1   ANOP                                                           19908002
         AIF   (T'&IDCOUNT EQ 'O').LIST1C                               19912602
         AIF   (T'&IDCOUNT EQ 'N').LIST1A                               19917202
&NCODE   SETB  1                                                        19921802
         MNOTE 12,'IDCOUNT OPERAND HAS INVALID TYPE ATTRIBUTE'          19926402
         AGO   .LIST1C                                                  19931002
.LIST1A  ANOP                                                           19935602
         AIF   (&IDCOUNT GE 0 AND &IDCOUNT LE 100).LIST1B               19940202
&NCODE   SETB  1                                                        19944802
         MNOTE 12,'IDCOUNT OPERAND NOT IN VALID RANGE OF 0 TO 100'      19949402
         AGO   .LIST1C                                                  19954002
.LIST1B  ANOP                                                           19958602
&IECGID  SETA  &IDCOUNT                                                 19963202
.LIST1C  ANOP                                                           19967802
         AIF   ('&GDU' NE 'YES').LIST2                                  19972402
         AIF   (&IECSW(1)).LIST2                                        19977002
&NCODE   SETB  1                                                        19981602
         MNOTE 12,'CORE=32 MUST BE CODED IF GDU=YES IS CODED'           19986202
.LIST2   ANOP                                                           19990802
         AIF   (NOT &NCODE).ALLOK                                       19995402
         MNOTE 12,'TEXT GENERATION SUPRESSED'                           20000019
&IECSEQ(1) SETB 0                                                 21094 20500021
         MEXIT                                                          21000019
.ALLOK   ANOP                                                           22000019
&B       SETA  16384                                                    23000019
&A       SETA  1280                                                     24000019
         AIF   (NOT &IECSW(1)).NOADD                                    25000019
&B       SETA  &B*2                                                     26000019
&A       SETA  &A+2816                                                  27000019
.NOADD   ANOP                                                           28000019
&A       SETA  &B-&A                                                    29000019
&CHAR    SETC  'BT'                                                     30000019
         AIF   ('&NAME' EQ '').NOSET                                    31000019
         AIF   (K'&NAME GT 1).SETC                                      32000019
&CHAR    SETC  'B'.'&NAME'(1,1)                                         33000019
         AGO   .NOSET                                                   34000019
.SETC    ANOP                                                           35000019
&CHAR    SETC  '&NAME'(1,2)                                             36000019
.NOSET   ANOP                                                           37000019
&CHAR.PC TITLE '*****         2715 TABLES         *****'                38000019
IEC15TAB CSECT                                                          39000019
         ORG   *+&A                                                     40000019
         SPACE 1                                                        41000019
*                  TABLE DEFINITION BLOCK                               42000019
         SPACE 1                                                        43000019
IECTBBGN DC    YL2(IECTBEND-IECTBBGN)  LENGTH OF TABLES                 44000019
         DC    YL2(IECASSEQ-IEC15TAB) AREA STATION SEQUENCE TABLE ADDR  45000019
         DC    YL2(IECASTBL-IEC15TAB) AREA STATIONTABLE ADDR            46000019
         DC    YL2(IECFTGRP-IEC15TAB) FIRST TRANSACTION GROUP ADDR      47000019
         DC    YL2(IECDENDX-IEC15TAB) DATA ENTRY UNIT INDEX TABLE ADDR  48000019
         DC    YL2(IECDEUTB-IEC15TAB) DATA ENTRY UNIT TABLE ADDR        49000019
         DC    YL2(IECDESEQ-IEC15TAB) DATA ENTRY UNIT SEQ TABLE ADDR    50000019
         DC    YL2(IECFTRLA-IEC15TAB) FIRST TRANSACTION LIST ADDR       51000019
         AIF   (NOT&IECSW(9)).SKIP                                21094 51100021
         DC    YL2(IECASCTB-IEC15TAB)      AREA STATION COUNTER TABLE   51200021
         DC    YL2(IECCTRGR-IEC15TAB)  COUNTER TABLE ADDR         21094 51300021
         DC    YL2(IECSCHED-IEC15TAB)  SCHEDULE TABLE ADDR        21094 51400021
         AGO   .MEND1                                                   51500002
.SKIP    ANOP                                                     21094 51600021
         DC    YL2(0) NULL BECAUSE PC=NO                          21094 51700021
.MEND1   ANOP                                                           51800002
         AIF   (NOT &IECIN).INQENT                                      51803002
         DC    YL2(IECINDS-IEC15TAB-128) INQ DISP CONTROL TABLE         51806002
         AGO   .MEND2                                                   51809002
.INQENT  ANOP                                                           51812002
        DC    YL2(0)    NULL BECAUSE INQDISP=NO                         51815002
.MEND2   ANOP                                                           51818002
         AIF   (NOT &IECGDSW).MEND4                                     51821002
         DC    YL2(IECGDSEQ-IEC15TAB) GDU SEQUENCE TABLE POINTER        51824002
         DC    B'&INVSW(1)&INVSW(2)&INVSW(3)&INVSW(4)&INVSW(5)&INVSW(6)X51827002
               &INVSW(7)&INVSW(8)'   FIRST BYTE OF FUNCTION  ERR GUID   51830002
         DC    B'&INVSW(9)&INVSW(10)&INVSW(11)&INVSW(12)&INVSW(13)&INVSX51833002
               W(14)&INVSW(15)&INVSW(16)' BYTE 2 OF FUNCT ERROR GUID    51836002
         DC    B'&MONSW(1)&MONSW(2)&MONSW(3)&MONSW(4)&MONSW(5)&MONSW(6)X51839002
               &MONSW(7)&MONSW(8)' MONITOR KEY ERROR GUIDANCE           51842002
         DC    B'&MONSW(9)&MONSW(10)&MONSW(11)&MONSW(12)&MONSW(13)&MONSX51845002
               W(14)&MONSW(15)&MONSW(16)' MONITOR KEY ERROR GUIDANCE    51848002
         DC    B'&PRESW(1)&PRESW(2)&PRESW(3)&PRESW(4)&PRESW(5)&PRESW(6)X51851002
               &PRESW(7)&PRESW(8)' PREMATURE END ERROR GUIDANCE         51854002
         DC    B'&PRESW(9)&PRESW(10)&PRESW(11)&PRESW(12)&PRESW(13)&PRESX51857002
               W(14)&PRESW(15)&PRESW(16)'  PREMATURE END ERROR GUIDANCE 51860002
         DC    YL2(IECGDTRN-IEC15TAB) TRANSACTION TABLE ADDRESS         51863002
         DC    YL2((IECPARLN-IEC15TAB)-2) PARAM LIST NO TABLE ADDR      51866002
         AIF   (T'&IDCOUNT EQ 'O').TAB1                                 51869002
         DC    YL2(IECIDENT-IEC15TAB)  IDENDIFIER TABLE POINTER         51872002
         AGO   .TAB2                                                    51875002
.TAB1    ANOP                                                           51878002
         DC    YL2(0)    NULL IDENTIFIER TABLE POINTER                  51881002
.TAB2    ANOP                                                           51884002
         DC    YL2(IECTRANS-IEC15TAB)  TRANSLATE TABLE POINTER          51887002
         DC    YL2(IECGDUAS-IEC15TAB)  GDU AREA STATION TABLE POINTER   51890002
         AIF   (T'&GETID EQ 'O').TAB3                                   51893002
         DC    XL1'&GETID'      GET IDENTIFIER CHARACTER                51896002
         AGO   .TAB4                                                    51899002
.TAB3    DC    YL1(0)   NULL GET IDENTIFIER CHARACTER                   51902002
.TAB4    AIF   (T'&STORID EQ 'O').TAB5                                  51905002
         DC    XL1'&STORID'      STORE  IDENTIFIER CHARACTER            51908002
         AGO   .TAB6                                                    51911002
.TAB5    DC    YL1(0)   NULL STORE IDENTIFIER CHARACTER                 51914002
.TAB6    DC    YL1(256+(IECGDTRN-IECPARLN))                             51917002
         AIF   (T'&IDCOUNT EQ 'O').TAB7                                 51920002
         DC    YL1(&IDCOUNT)                                            51923002
         AGO   .TAB8                                                    51926002
.TAB7    DC    YL1(0)                                                   51929002
.TAB8    ANOP                                                           51932002
         AIF   (T'&IDCOUNT EQ 'O').MEND                                 51935002
&A       SETA  &IDCOUNT                                                 51938002
&B       SETA  1                                                        51941002
         SPACE 1                                                        51944002
*                        GUIDANCE DISPLAY UNIT IDENTIFIER TABLE         51947002
         SPACE 1                                                        51950002
IECIDENT EQU   *                                                        51953002
         AIF   (&A EQ 0).MEND                                           51956002
&IECIDTF SETA  &IECIDTF+14                                              51959002
         DC    X'0D'                                                    51962002
         DC    C'NOT USED     '                                         51965002
.TAB9    ANOP                                                           51968002
         AIF   (&B EQ &A).MEND                                          51971002
&IECIDTF SETA  &IECIDTF+14                                              51974002
         DC    X'0D'                                                    51977002
         DC    C'NOT USED     '                                         51980002
&B       SETA  &B+1                                                     51983002
         AGO   .TAB9                                                    51986002
.MEND4   ANOP                                                           51989002
         DC    YL2(0)   NULL BECAUSE GDU=NO                             51992002
.MEND    MEND                                                           52000019
