         MACRO                                                          05000013
&NAME    COUNTER  &PAR1                                                 10000013
         GBLA  &IEDQZE(64)                                              12000020
         GBLB  &SEN                                                     12200020
         GBLB  &IEDQZA(64)                                              12400020
         LCLB  &NOGO                                                    12600020
.* 120000-126000,130000-184000                                    20002 12800020
.*D180000                                                          RA06 12900020
.*             VERSION DATED OCTOBER 20, 1970                      RA06 13000020
         SPACE 1 .                                                20002 13200020
         AIF   (NOT &IEDQZA(7)).CQTAM                             20002 13400020
         AIF   ((&IEDQZA(1) OR &IEDQZA(2)) AND NOT &IEDQZA(5)).OK 20002 13600020
         MNOTE 12,'***  IHB070  SEQUENCE ERROR - MUST FOLLOW INHDR, INB*13800020
               UF, OUTHDR OR OUTBUF MACRO'                              14000020
&NOGO    SETB  1                                                  20002 14200020
.OK      AIF   ('&PAR1' EQ '').OPERR                              20002 14400020
         AIF   ('&PAR1'(K'&PAR1,1) EQ ')' OR '&PAR1'(K'&PAR1,1) EQ ''''*14600020
               ).OPERR                                            20002 14800020
         AIF   (K'&PAR1 GT 8).OPERR                               20002 15000020
         AIF   (('&PAR1'(1,1) GE 'A' AND '&PAR1'(1,1) LE 'Z') OR '&PAR1*15200020
               '(1,1) EQ '$' OR '&PAR1'(1,1) EQ '#' OR '&PAR1'(1,1) EQ *15400020
               '@').VCON                                          20002 15600020
.OPERR   MNOTE 12,'***  IHB300  OPTION FIELD OPERAND INVALID AS SPECIFI*15800020
               ED'                                                      16000020
&NOGO    SETB  1                                                  20002 16200020
.VCON    AIF   (&NOGO).MEND                                       20002 16400020
         IEDQVCON (31,32),(IEDQAE,IEDQA7)                               16600020
&NAME    L     15,IEDMSGS-1 .                                     20002 16800020
         L     15,(&IEDQZE(32))(,15) .                            20002 17000020
         BALR  1,15 .                                             20002 17200020
         DC    AL1(&IEDQZE(31)+&IEDQZA(3)+&IEDQZA(4)),AL1(4),AL1(&PAR1)*17400020
               ,AL1(15) .                                      @YM07440 17600010
.MEND    SPACE 2 .                                                20002 17800020
         MEXIT                                                          18200020
.CQTAM   ANOP                                                           18400020
         AIF   ('&PAR1' NE '').GO                                       20000013
         MNOTE 12,'***  IHB004  REQUIRED OPERAND(S) NOT SPECIFIED'      25000013
         MEXIT                                                          30000013
.GO      AIF   (NOT &SEN).GOTWO                                         35000013
         TM    12(6),X'20'        RECALLED SEGMENT FOR RETRY            40000013
         BO    *+34               BRANCH IF YES                         45000013
.GOTWO   OC    44(2,4),44(4)      VALID SOURCE                          50000013
         BZ    *+24               BRANCH NO                             55000013
         TM    40(4),2            DO WE HAVE TERM ADDRESS               60000013
         BO    *+16               BRANCH NO                             65000013
         LH    9,&PAR1                 LOAD PRESENT COUNTER VALUE       70000013
         LA    9,1(9)                  ADD ONE                          75000013
         STH   9,&PAR1                 STORE NEW COUNTER VALUE          80000013
         MEND                                                           85000013
