         MACRO                                                          01000022
&NAME    CTBFORM &OP,&DVCID=YES,&ENDCHAR=YES,&INSERT=YES                02000010
         GBLB  &IEDQZA(64)                                              03000022
         GBLA  &IEDQZE(64)                                              04000022
         LCLB  &NOGO,&SW(8)                                             05000022
.*  &SW(4) MUST ALWAYS BE ZERO                                   S22027 05500010
         LCLB  &B                                                       06000022
         LCLA  &I                                                       07000022
.*A22026                                                         S22026 08000022
.*       CTBFORM VERSION DATED MAY 5,1972                        S22027 09000010
         SPACE 1                                                        10000022
         AIF   (&IEDQZA(13)).OK1                                        11000022
         MNOTE 8,'*** IHB233 INCONSISTENT WITH FEATURE OPERAND OF THE IX12000022
               NTRO MACRO' .                                            13000022
&NOGO    SETB  1                                                        14000022
.OK1     ANOP                                                           15000022
         AIF   (NOT &IEDQZA(9)).NOTSO                                   16000022
         MNOTE 12,'*** IHB312 MUST FOLLOW STARTMH MACRO WITH TSOMH=NO'  17000022
&NOGO    SETB  1                                                        19000022
.NOTSO   ANOP                                                           20000022
         AIF   (&IEDQZA(2) AND NOT &IEDQZA(4) AND NOT &IEDQZA(5)).OUTOK 21000022
         MNOTE 12,'*** IHB070 SEQUENCE ERROR- MUST FOLLOW OUTBUF MACRO' 22000022
&NOGO    SETB  1                                                        24000022
.OUTOK   ANOP                                                           25000022
         AIF   ('&OP' EQ '').DVCID                                      26000022
&SW(1)   SETB  1                                                        27000022
         AIF   ('&OP'(K'&OP,1) EQ ')' OR '&OP'(K'&OP,1) EQ '''').OPERR  28000022
         AIF   (K'&OP GT 8).OPERR                                       29000022
         AIF   (('&OP'(1,1) GE 'A' AND '&OP'(1,1) LE 'Z') OR '&OP'(1,1)*30000022
               EQ '$' OR '&OP'(1,1) EQ '#' OR '&OP'(1,1) EQ '@').DVCID  31000022
.OPERR   MNOTE 12,'*** IHB300 &OP OPERAND INVALID AS SPECIFIED'  S22027 32000010
&NOGO    SETB  1                                                        34000022
&SW(1)   SETB  0                                                        35000022
.DVCID   ANOP                                                           36000022
&SW(2)   SETB  ('&DVCID' EQ 'YES')                                      37000022
         AIF   ('&DVCID' EQ 'YES' OR '&DVCID' EQ 'NO').DVDOK            38000022
&NOGO    SETB  1                                                        39000022
         MNOTE 12,'***  IHB300  DVCID OPERAND INVALID AS SPECIFIED'     40000022
.DVDOK   ANOP                                                           41000022
&SW(3)   SETB  ('&ENDCHAR' EQ 'YES')                                    42000022
         AIF   ('&ENDCHAR' EQ 'YES' OR '&ENDCHAR' EQ 'NO').CKINS S22027 43000010
         MNOTE 12,'*** IHB300 ENDCHAR OPERAND INVALID AS SPECIFIED'     44000022
&NOGO    SETB  1                                                        45000022
.CKINS   ANOP                                                    S22027 45100010
&SW(5)   SETB  ('&INSERT' EQ 'NO')                               S22027 45200010
         AIF   ('&INSERT' EQ 'YES' OR '&INSERT' EQ 'NO').CKIFOP  S22027 45300010
         MNOTE 12,'*** IHB300 INSERT OPERAND INVALID AS SPECIFIED'      45400010
*                                                                S22027 45500010
&NOGO    SETB  1                                                 S22027 45600010
.CKIFOP  ANOP                                                    S22027 45700010
         AIF   (&SW(1)).CKGEN                                    S22027 45800010
&SW(5)   SETB  0                                                 S22027 45900010
.CKGEN   AIF   (&NOGO).MEND                                             46000022
         AIF   (&SW(1) AND (&SW(2) OR &SW(3))).ALL                      47000022
         AIF   (NOT &SW(1) AND (&SW(2) OR &SW(3))).NOAE                 48000022
         IEDQVCON 51,IEDQGH                                             49000022
         AGO   .GEN                                                     50000022
.ALL     ANOP                                                           51000022
         IEDQVCON (51,31,16,38),(IEDQGH,IEDQAE,IEDQAO,IEDQAF)           52000022
         AGO   .GEN                                                     53000022
.NOAE    ANOP                                                           54000022
         IEDQVCON (51,16,38),(IEDQGH,IEDQAO,IEDQAF)                     55000022
.GEN     ANOP                                                           56000022
&B       SETB  (&SW(1) OR &SW(2) OR &SW(3))                             57000022
&I       SETA  4+2*&SW(1)+2*&B                                          58000022
&NAME    BAL   1,*+&I+4                                                 59000022
         DC    AL1(&IEDQZE(51)),AL1(&I),BL1'&SW(8)&SW(7)&SW(6)&SW(5)&SW*60000022
               (4)&SW(3)&SW(2)&SW(1)',AL1(0)                            61000022
         AIF   (NOT &SW(1) AND NOT &SW(2) AND NOT &SW(3)).NOAF1         62000022
         DC    AL1(&IEDQZE(38)),AL1(&IEDQZE(16))                        63000022
.NOAF1   ANOP                                                           64000022
         AIF   (NOT &SW(1)).NOOPFLD                                     65000022
         DC    AL1(&IEDQZE(31)),AL1(&OP)                                66000022
.NOOPFLD ANOP                                                           67000022
         L     15,IEDUI                                                 68000022
         BALR  14,15                                                    69000022
&IEDQZA(25) SETB 1                                                      70000022
.MEND    SPACE 2                                                        71000022
         MEND                                                           72000022
