         MACRO                                                          00050000
&NAME    CTRGROUP &OP1,&OP2,&OP3,&ID=,&SROENAB=,&CTINIT=                00100000
         GBLA  &IECPCSW(100),&IECPCTN,&IECCTID,&IECCNO,&IECCTOT         00150000
.*             IECPCSW(100) VALUES OF HIGH CNTRS FOR EACH AS            00200000
.*             IECPCTN  TOTAL NUMBER OF PULSE COUNTERS DEFINED          00250000
.*             IECCTID  VALUE OF ID PREVIOUS CTRGROUP MACRO             00300000
.*             IECCNO  VALUE OF CTRNO OF PREVIOUS CTRGROUP MACRO        00350000
.*             IECCTOT  TOTAL NUMBER OF COUNTERS DEFINED IN CTRGROUP    00400000
         GBLA  &IECNDGP(100),&IECPCTS                                   00450000
.*             IECNDGP(1)  NUMBER OF BYTES COUNTER                      00500000
.*             IECPCTS  ID VALUE OF LAST ASCTR MACRO                    00550000
         GBLA  &IECSCNO,&IECCHK                                         00600000
.*             IECSCNO   HIGHEST SCHEDULE REFFERRED TO IN CTRGROUPS     00650000
.*             IECCHK   COUNTER TO CHECK 504 LIMIT IN CTR TABLE         00700000
         GBLB  &IECSEQ(10),&IECSWW(2),&IECSW(9)                         00750000
.*             IECSEQ(8)  SEQUENCE INDICATOR                            00800000
.*             IECSWW(2) ON INDICATES NOT FIRST CTRGROUP MACRO          00850000
.*             IECSW(9) ON INDICATES PULSE COUNT                        00900000
         LCLA  &A,&B,&C,&D,&E,&F                                        00950000
         LCLB  &NOCODE                                                  01000000
         LCLC  &CHAR                                                    01050000
         ACTR  1000                                                     01100000
         AIF   (&IECSWW(2)).SKIPONE                                     01150000
&IECSEQ(8) SETB 1                                                       01200000
.SKIPONE AIF   (&IECSW(9)).SKIPTWO                                      01250000
         MNOTE 12,'CTRGROUP MACRO NOT VALID BECAUSE PC=YES NOT CODED INX01300000
               CONFIGUR MACRO'                                          01350000
         MEXIT                                                          01400000
.SKIPTWO AIF  (&IECSEQ(1) AND &IECSEQ(2) AND &IECSEQ(3) AND &IECSEQ(7) X01450000
               AND &IECSEQ(8) AND NOT&IECSEQ(4) AND NOT&IECSEQ(5)).RRR  01500000
.SSS     ANOP                                                           01550000
&NOCODE  SETB  1                                                        01600000
         MNOTE 12,'MACRO SEQUENCE ERROR'                                01650000
         AGO   .TTT                                                     01700000
.RRR     ANOP                                                           01750000
         AIF   (&IECSEQ(6)).SSS                                         01800000
.TTT     ANOP                                                           01850000
         AIF   (T'&OP1 EQ 'N').CTRCHK                                   01900000
&CHAR    SETC  T'&OP1                                                   01950000
&NOCODE  SETB  1                                                        02000000
         MNOTE 12,' REQUIRED OPERAND =CTRNO TYPE ATTRIBUTE=&CHAR       X02050000
               IMPROPER'                                                02100000
         AGO   .SROCHK                                                  02150000
.CTRCHK  ANOP                                                           02200000
&A       SETA  &OP1                                                     02250000
         AIF   (&A GE 1 AND &A LE 63).SROCHKK                           02300000
&NOCODE  SETB  1                                                        02350000
         MNOTE 12,'REQUIRED OPERAND =CTRNO HAS INVALID VALUE'           02400000
         AGO   .SROCHK                                                  02450000
.SROCHKK ANOP                                                           02500000
         AIF   (&ID NE &IECCTID).SROCHK                                 02550000
         AIF   (&A GT &IECCNO).SROCHK                                   02600000
&NOCODE  SETB  1                                                        02650000
         MNOTE 12,'CTRNO OPERAND IS OUT OF SEQUENCE'                    02700000
.SROCHK  ANOP                                                           02750000
         AIF   (T'&OP2 EQ 'N' OR T'&OP2 EQ 'O').SROLGN                  02800000
&CHAR    SETC  T'&OP2                                                   02850000
&NOCODE  SETB  1                                                        02900000
         MNOTE 12,'SRO OPERAND HAS INVALID TYPE ATTRIBUTE = &CHAR'      02950000
         AGO   .CTTCHK                                                  03000000
.SROLGN  AIF   (T'&OP2 EQ 'O').CTTCHK                                   03050000
         AIF   (&OP2 GE 0 AND &OP2 LE 15).CTTCHK1                       03100000
&NOCODE  SETB  1                                                        03150000
         MNOTE 12,'SRO OPERAND NOT IN VALID RANGE OF 0 TO 15'           03200000
         AGO   .CTTCHK                                                  03250000
.CTTCHK1 ANOP                                                           03300000
         AIF   (&OP2 LE &IECSCNO).CTTCHK                                03350000
&IECSCNO SETA  &OP2                                                     03400000
.CTTCHK  ANOP                                                           03450000
         AIF   (T'&OP3 EQ 'N' OR T'&OP3 EQ 'O').CTTLNG                  03500000
&CHAR    SETC  T'&OP3                                                   03550000
&NOCODE  SETB  1                                                        03600000
         MNOTE 12,'CTTEST OPERAND HAS TYPE ATTRIBUTE = &CHAR'           03650000
         AGO   .SROECHK                                                 03700000
.CTTLNG  ANOP                                                           03750000
         AIF   (T'&OP3 EQ 'O').SROECHK                                  03800000
        AIF   (&OP3 GE 0 AND &OP3 LE 15).SROECHK                        03850000
&NOCODE  SETB  1                                                        03900000
         MNOTE 12,'CTTEST OPERAND NOT IN VALID RANGE OF 0 TO 15'        03950000
         AGO   .SROECHK                                                 04000000
.SROECK  ANOP                                                           04050000
         AIF   (&OP3 LE &IECSCNO).SROECHK                               04100000
&IECSCNO SETA  &OP3                                                     04150000
.SROECHK ANOP                                                           04200000
         AIF   (T'&SROENAB EQ 'O').CTINCHK                              04250000
.SROE    AIF   ('&SROENAB' EQ 'YES' OR '&SROENAB' EQ 'NO').CTINCHK      04300000
.ERR     ANOP                                                           04350000
&NOCODE  SETB  1                                                        04400000
         MNOTE 12,'SROENAB=&SROENAB INVALID'                            04450000
         AGO   .HERE                                                    04500000
.CTINCHK ANOP                                                           04550000
         AIF   (T'&OP2 NE 'O').THIS                                     04600000
         AIF   ('&SROENAB' EQ 'YES').ERR2                               04650000
         AGO   .HERE                                                    04700000
.THIS    ANOP                                                           04750000
&A       SETA  &OP2                                                     04800000
         AIF   (&A EQ 0 AND '&SROENAB' EQ 'YES').ERR2                   04850000
.HERE    ANOP                                                           04900000
         AIF   (T'&CTINIT EQ 'O').IDCHK                                 04950000
.CTI     AIF   ('&CTINIT' EQ 'NULL' OR '&CTINIT' EQ 'NCT' OR '&CTINIT' X05000000
               EQ 'UNASP').LOGCHK                                       05050000
.ERR1    ANOP                                                           05100000
&NOCODE  SETB  1                                                        05150000
         MNOTE 12,'CTINIT =&CTINIT INVALID'                             05200000
         AGO   .IDCHK                                                   05250000
.ERR2    ANOP                                                           05300000
&NOCODE  SETB  1                                                        05350000
         MNOTE 12,'SROENAB=YES CAN NOT BE CODED IF SRO OPERAND IS 0 OR X05400000
               OMITTED'                                                 05450000
         AGO   .HERE                                                    05500000
.LOGCHK  ANOP                                                           05550000
         AIF   (T'&OP3 NE 'O').WHA                                      05600000
         AIF   ('&CTINIT' EQ 'NCT' OR '&CTINIT' EQ 'UNASP').ERR3        05650000
         AGO   .IDCHK                                                   05700000
.WHA     ANOP                                                           05750000
&A       SETA  &OP3                                                     05800000
         AIF   (&A EQ 0 AND '&CTINIT' EQ 'NCT').ERR3                    05850000
         AIF   (&A EQ 0 AND '&CTINIT' EQ 'UNASP').ERR3                  05900000
         AGO   .IDCHK                                                   05950000
.ERR3    ANOP                                                           06000000
&NOCODE  SETB  1                                                        06050000
         MNOTE 12,'CTINIT=NULL OR CTINIT=UNASP CAN NOT BE CODED IF CTTEX06100000
               ST OPERAND IS 0 OR OMITTED'                              06150000
         AGO   .IDCHK                                                   06200000
.IDCHK   ANOP                                                           06250000
         AIF   (&IECCHK LE 504).IDCKK                                   06300000
         MNOTE 12,'NUMBER OF COUNTERS DEFINED BY CTRGROUP MACROS       X06350000
               EXCEEDS 504'                                             06400000
&NOCODE  SETB  1                                                        06450000
.IDCKK   ANOP                                                           06500000
         AIF   (T'&ID NE 'O').IDCHK2                                    06550000
.IDCHK1  ANOP                                                           06600000
&CHAR    SETC  T'&ID                                                    06650000
&NOCODE  SETB  1                                                        06700000
         MNOTE 12,'ID OPERAND HAS INVALID TYPE ATTRIBUTE = &CHAR'       06750000
         AGO   .CODECHK                                                 06800000
.IDCHK2  AIF   (T'&ID NE 'N').IDCHK1                                    06850000
.IDVAL   AIF   (&ID GE 0 AND &ID LE 99).NOTHLOP                         06900000
&NOCODE  SETB  1                                                        06950000
         MNOTE 12,'ID OPERAND IS NOT IN VALID RANGE OF 0 TO 99'         07000000
         AGO   .CODECHK                                                 07050000
.NOTHLOP ANOP                                                           07100000
         AIF   (&ID LT &IECCTID).ERR8                                   07150000
.OMIT    ANOP                                                           07200000
         AIF   ((T'&OP2 EQ 'O' OR '&OP2' EQ '0') AND (T'&OP3 EQ 'O' OR X07250000
               '&OP3' EQ '0')).ERR6                                     07300000
         AGO   .VERIFY                                                  07350000
.ERR8    ANOP                                                           07400000
&NOCODE  SETB  1                                                        07450000
         MNOTE 12,'ID OPERAND IS OUT OF SEQUENCE'                       07500000
         AGO   .OMIT                                                    07550000
.ERR6    ANOP                                                           07600000
&C       SETA  &ID+1                                                    07650000
&D       SETA  &IECPCSW(&C)                                             07700000
&E       SETA  &OP1                                                     07750000
&C       SETA  &D-&E                                                    07800000
         AIF   (&D EQ &E).DECR                                          07850000
.ERR7    ANOP                                                           07900000
&NOCODE  SETB  1                                                        07950000
         MNOTE 12,'NEITHER SRO NOR CTTEST SPECIFIED,MACRO IGNORED'      08000000
         AGO   .NAMLOOP                                                 08050000
.DECR    ANOP                                                           08100000
&D       SETA  &E-&IECCNO                                               08150000
&IECPCTN SETA  &IECPCTN-&D                                              08200000
         AGO   .ERR7                                                    08250000
.VERIFY  ANOP                                                           08300000
&C       SETA  &ID+1                                                    08350000
&D       SETA  &IECPCSW(&C)                                             08400000
&E       SETA  &OP1                                                     08450000
         AIF   ((&D-&E) GE 0).NAMLOOP                                   08500000
&NOCODE  SETB  1                                                        08550000
         MNOTE 12,'CTRNO=&OP1 IS HIGHER THAN HIGHCTR OPERAND OF ASCTR  X08600000
               MACRO WITH ID=&ID'                                       08650000
         AGO   .NAMLOOP                                                 08700000
.NAMLOOP ANOP                                                           08750000
         AIF   (&ID EQ &IECCTID).HSETUP                                 08800000
&IECCNO  SETA  0                                                        08850000
&B       SETA  0                                                        08900000
.HSETUP  ANOP                                                           08950000
&C       SETA  &ID+1                                                    09000000
&D       SETA  &IECPCSW(&C)                                             09050000
.CODECHK ANOP                                                           09100000
         AIF   (&NOCODE).NOGEN                                          09150000
         AIF   (&IECSWW(2)).LCTRG                                       09200000
&IECSWW(2) SETB 1                                                       09250000
&A       SETA  (2*&IECPCTN)                                             09300000
&A       SETA  &A+61440                                                 09350000
         DC    AL2(&A)                                                  09400000
         SPACE 1                                                        09450000
         SPACE 1                                                        09500000
*                       COUNTER TABLE                                   09550000
         SPACE 1                                                        09600000
         SPACE 1                                                        09650000
IECCTRGR EQU   *                                                        09700000
.LCTRG   ANOP                                                           09750000
&E       SETA  &OP1                                                     09800000
&F       SETA  2*(&D-&E)                                                09850000
&A       SETA  &E-&IECCNO                                               09900000
         AIF   (&A EQ 1).REGENT                                         09950000
&A       SETA  &A-1                                                     10000000
&B       SETA  &A                                                       10050000
&A       SETA  2*&A                                                     10100000
&A       SETA  &A+16384                                                 10150000
         DC    AL2(&A)                                                  10200000
.LOOP3   ANOP                                                           10250000
         AIF   (&B EQ 1).REGENT                                         10300000
         DC    AL2(16384)                                               10350000
&B       SETA  &B-1                                                     10400000
         AGO   .LOOP3                                                   10450000
.REGENT  ANOP                                                           10500000
&IECCNO  SETA  &OP1                                                     10550000
&IECCTID SETA  &ID                                                      10600000
         AIF   (T'&OP2 NE 'O').SPEC                                     10650000
&A       SETA  0                                                        10700000
         AGO   .EOG                                                     10750000
.SPEC    ANOP                                                           10800000
&A       SETA  &OP2                                                     10850000
.EOG     ANOP                                                           10900000
&C       SETA  &ID+1                                                    10950000
&D       SETA  &IECPCSW(&C)                                             11000000
&E       SETA  &OP1                                                     11050000
         AIF   (&D NE &E).EOT                                           11100000
&A       SETA  &A+32                                                    11150000
&IECCTOT SETA  &IECCTOT+&E                                              11200000
.EOT     ANOP                                                           11250000
         AIF   (&IECCTOT NE &IECPCTN).ENA                               11300000
&A       SETA  &A+16                                                    11350000
.ENA     ANOP                                                           11400000
         AIF   ('&SROENAB' NE 'YES').FIN                                11450000
&A       SETA  &A+128                                                   11500000
.FIN     ANOP                                                           11550000
         DC    YL1(&A)                                                  11600000
         AIF   (T'&OP3 NE 'O').SET1                                     11650000
&A       SETA  0                                                        11700000
         AGO   .SET0                                                    11750000
.SET1    ANOP                                                           11800000
&A       SETA  &OP3                                                     11850000
.SET0    ANOP                                                           11900000
         AIF   ('&CTINIT' NE 'NCT').UNAS                                11950000
&A       SETA  &A+64                                                    12000000
&A       SETA  &A+128                                                   12050000
.UNAS    ANOP                                                           12100000
         AIF   ('&CTINIT' NE 'UNASP').IT                                12150000
&A       SETA  &A+32                                                    12200000
&A       SETA  &A+128                                                   12250000
.IT      ANOP                                                           12300000
         DC    YL1(&A)                                                  12350000
         AIF   (&IECCTOT NE &IECPCTN).DONE                              12400000
&A       SETA  12288                                                    12450000
         DC    AL2(&A)                                                  12500000
&IECNDGP(1) SETA &IECNDGP(1)+2*&IECPCTS+2*&IECCTOT+8                    12550000
         AGO   .DONE                                                    12600000
.NOGEN   ANOP                                                           12650000
         MNOTE 12,'TEXT GENERATION SUPPRESSED'                          12700000
.DONE    ANOP                                                           12750000
         MEND                                                           12800000
