         MACRO                                                          00050000
&NAME    CTRLIST &DEVCOD=,&CTRADR=,&CTTEST=,&CTROP=,&CTRRD=,&MSG=       00100000
         GBLA  &IECNDGP(100)                                            00150000
.*             IECNDGP(1) NUMBER OF BYTES COUNTER                       00200000
         GBLB  &IECSEQ(10),&IECSW(9),&IECTXT,&IECAS,&IECCL              00250000
.*             IECSEQ(10)  SEQUENCE INDICATOR                           00300000
.*             IECSW(9) ON INDICATES PULSE COUNT                        00350000
.*             IECCL  INDICATES CTRLIST MACRO IS CODED                  00400000
.*             IECAS  INDICATES ASLIST MACRO IS CODED                   00450000
         GBLB  &IECDE                                                   00500000
.*             IECDE   INDICATES DEULIST MACRO CODED                    00550000
         LCLA  &B                                                       00600000
         LCLB  &NOCODE,&CBSW(8)                                         00650000
         LCLC  &CHAR                                                    00700000
         AIF   (&IECSW(9)).SEQCHK                                       00750000
&NOCODE  SETB  1                                                        00800000
         MNOTE 12,'CTRLIST MACRO NOT VALID BECAUSE PC=YES NOT CODED IN X00850000
               CONFIGUR MACRO'                                          00900000
         MEXIT                                                          00950000
.SEQCHK  ANOP                                                           01000000
&IECSW(2) SETB 0                                                        01050000
     AIF (&IECSEQ(1) AND &IECSEQ(2) AND &IECSEQ(3) AND &IECSEQ(4)).RRR  01100000
&NOCODE  SETB  1                                                        01150000
         MNOTE 12,'MACRO SEQUENCE ERROR'                                01200000
.RRR     ANOP                                                           01250000
         AIF   (&IECDE).SVT                                             01300000
&NOCODE  SETB  1                                                        01350000
         MNOTE 12,'DEULIST MACRO MUST PRECEDE CTRLIST MACRO'            01400000
.SVT     ANOP                                                           01450000
         AIF   (NOT&IECCL).SEQOK                                        01500000
         MNOTE 12,'CTRLIST MACRO ALREADY CODED FOR THIS TRANSACTION'    01550000
&NOCODE  SETB  1                                                        01600000
.SEQOK   ANOP                                                           01650000
&IECCL   SETB  1                                                        01700000
         AIF   (T'&DEVCOD NE 'O').DEV1                                  01750000
&NOCODE  SETB  1                                                        01800000
         MNOTE 12,'DEVCOD OPERAND WAS OMITTED'                          01850000
         AGO   .ADR1                                                    01900000
.DEV1    AIF   ('&DEVCOD' EQ 'B' OR '&DEVCOD' EQ 'C' OR '&DEVCOD' EQ   X01950000
               'M').ADR1                                                02000000
&NOCODE  SETB  1                                                        02050000
         MNOTE 12,'DEVCOD OPERAND IS INVALID'                           02100000
.ADR1    ANOP                                                           02150000
         AIF   (T'&CTRADR NE 'O').RRD1                                  02200000
&NOCODE  SETB  1                                                        02250000
         MNOTE 12,'CTRADR OPERAND IS OMITTED'                           02300000
         AGO   .RRD                                                     02350000
.RRD1    ANOP                                                           02400000
         AIF   ('&CTRADR' EQ 'EXP' OR '&CTRADR' EQ 'IMP').RRD           02450000
&NOCODE  SETB  1                                                        02500000
         MNOTE 12,'CTRADR OPERAND IS INVALID'                           02550000
.RRD     ANOP                                                           02600000
         AIF   (T'&CTRRD NE 'O').TEST1                                  02650000
&NOCODE  SETB  1                                                        02700000
         MNOTE 12,'CTRRD OPERAND IS OMITTED'                            02750000
         AGO   .TEST                                                    02800000
.TEST1   ANOP                                                           02850000
         AIF   ('&CTRRD' EQ 'SINGLE' OR '&CTRRD' EQ 'GROUP').TEST       02900000
&NOCODE  SETB  1                                                        02950000
         MNOTE 12,'CTRRD OPERAND IS INVALID'                            03000000
.TEST    ANOP                                                           03050000
         AIF   (T'&CTTEST NE 'O').OP1                                   03100000
&NOCODE  SETB  1                                                        03150000
         MNOTE 12,'CTTEST OPERAND IS OMITTED'                           03200000
         AGO   .OP                                                      03250000
.OP1     ANOP                                                           03300000
         AIF   ('&CTTEST' EQ 'RESET' OR '&CTTEST' EQ 'SETNCT' OR '&CTTEX03350000
               ST' EQ 'SETUNAS' OR '&CTTEST' EQ 'NULL').OP              03400000
&NOCODE  SETB  1                                                        03450000
         MNOTE 12,' CTTEST OPERAND IS INVALID'                          03500000
.OP      ANOP                                                           03550000
         AIF   (T'&CTROP NE 'O').OPCHK                                  03600000
&NOCODE  SETB  1                                                        03650000
         MNOTE 12,'CTROP OPERAND WAS OMITTED'                           03700000
         AGO   .GEN                                                     03750000
.OPCHK   ANOP                                                           03800000
         AIF   ('&CTROP' EQ 'RDRESID').GEN                              03850000
         AIF   ('&CTROP' EQ 'READ' OR '&CTROP' EQ 'SET' OR '&CTROP' EQ X03900000
               'READSET' OR '&CTROP' EQ 'READRST').GEN                  03950000
         AIF   ('&CTROP' EQ 'NULL').GEN                                 04000000
&NOCODE  SETB  1                                                        04050000
         MNOTE 12,'CTROP OPERAND IS INVALID'                            04100000
.GEN     AIF   (T'&MSG EQ 'O').GENCODE                                  04150000
         AIF   (T'&MSG NE 'O' AND &IECTXT).CKMRMSG                      04200000
         MNOTE 3,'MSG OPERAND ILLEGALLY CODED'                          04250000
&IECSW(2) SETB 1                                                        04300000
         AGO   .GENCODE                                                 04350000
.CKMRMSG AIF   ('&MSG'(1,1) EQ '''' AND '&MSG'(K'&MSG,1) EQ '''').MFOK  04400000
         MNOTE 3,'MSG OPERAND IN INCORRECT FORMAT'                      04450000
&IECSW(2) SETB 1                                                        04500000
         AGO   .GENCODE                                                 04550000
.MFOK    ANOP                                                           04600000
&B       SETA  K'&MSG-2                                                 04650000
         AIF   (&B GE 0 AND &B LE 127).GENCODE                          04700000
         MNOTE 3,'MESSAGE LENGTH EXCEEDS 127'                           04750000
&IECSW(2) SETB 1                                                        04800000
.GENCODE ANOP                                                           04850000
         AIF   (&IECSW(8)).WRONG5                                       04900000
.CHK1    ANOP                                                           04950000
         AIF   ('&CTRRD' EQ 'GROUP' AND '&CTROP' EQ 'SET').WRONG1       05000000
.CHK2    ANOP                                                           05050000
         AIF   ('&CTRRD' EQ 'GROUP' AND '&CTROP' EQ 'READSET').WRONG2   05100000
.CHK3    ANOP                                                           05150000
         AIF   ('&CTRRD' EQ 'GROUP' AND '&CTROP' EQ 'READRST').WRONG3   05200000
.CHK4    ANOP                                                           05250000
         AIF   ('&CTRRD' EQ 'GROUP' AND '&CTRADR' EQ 'IMP').WRONG4      05300000
.CHK5    ANOP                                                           05350000
         AIF   (NOT&IECAS).NOWRG                                        05400000
         MNOTE 12,'CTRLIST MACRO CAN NOT FOLLOW AN ASLIST MACRO'        05450000
&NOCODE  SETB  1                                                        05500000
         AGO   .NOWRG                                                   05550000
.WRONG1  ANOP                                                           05600000
&NOCODE  SETB  1                                                        05650000
         MNOTE 12,'CTRRD=GROUP AND CTROP=SET NOT VALID COMBINATION'     05700000
         AGO   .CHK2                                                    05750000
.WRONG2  ANOP                                                           05800000
&NOCODE  SETB  1                                                        05850000
         MNOTE 12,'CTRRD=GROUP AND CTROP=READSET NOT VALID COMBINATION' 05900000
         AGO   .CHK3                                                    05950000
.WRONG3  ANOP                                                           06000000
&NOCODE  SETB  1                                                        06050000
         MNOTE 12,'CTRRD=GROUP AND CTROP=READRST NOT VALID COMBINATION' 06100000
         AGO   .CHK4                                                    06150000
.WRONG4  ANOP                                                           06200000
&NOCODE  SETB  1                                                        06250000
         MNOTE 12,'CTRRD=GROUP AND CTRADR=IMP NOT VALID COMBINATION'    06300000
         AGO   .CHK5                                                    06350000
.WRONG5  ANOP                                                           06400000
         MNOTE 12,'MSG OPERAND CODED IN PREVIOUS MACRO'                 06450000
&NOCODE  SETB  1                                                        06500000
         AGO   .CHK1                                                    06550000
.NOWRG   ANOP                                                           06600000
         AIF   (&NOCODE).NOGEN                                          06650000
         SPACE 1                                                        06700000
*              COUNTER APPENDAGE                                        06750000
         SPACE 1                                                        06800000
         DC    X'20'                                                    06850000
         DC    X'00'                                                    06900000
         DC    X'00'                                                    06950000
         AIF   ('&DEVCOD' EQ 'M').MANUAL                                07000000
         DC    X'01'      DISPLACEMENT BYTE                             07050000
         AGO   .CB                                                      07100000
.MANUAL  ANOP                                                           07150000
         DC    X'05'    DISPLACEMENT BYTE                               07200000
.CB      ANOP                                                           07250000
         AIF   ('&CTTEST' EQ 'NULL').CB1                                07300000
         AIF   ('&CTTEST' NE 'SETNCT').CB2                              07350000
&CBSW(8) SETB 1                                                         07400000
         AGO   .CB1                                                     07450000
.CB2     AIF   ('&CTTEST' NE 'SETUNAS').CB3                             07500000
&CBSW(7) SETB  1                                                        07550000
         AGO   .CB1                                                     07600000
.CB3     ANOP                                                           07650000
&CBSW(8) SETB  1                                                        07700000
&CBSW(7) SETB  1                                                        07750000
.CB1     ANOP                                                           07800000
         AIF   ('&CTRADR' NE 'IMP').CB4                                 07850000
&CBSW(6) SETB  1                                                        07900000
.CB4     ANOP                                                           07950000
         AIF   ('&CTROP' NE 'SET').CB5                                  08000000
&CBSW(3) SETB  1                                                        08050000
.CB5     ANOP                                                           08100000
         AIF   ('&CTRRD' EQ 'GROUP').CB6                                08150000
         AIF   ('&CTROP' NE 'READ').CB7                                 08200000
&CBSW(1) SETB  1                                                        08250000
.CB7     ANOP                                                           08300000
         AIF   ('&CTROP' NE 'RDRESID').CB8                              08350000
&CBSW(1) SETB  1                                                        08400000
&CBSW(3) SETB  1                                                        08450000
.CB8     ANOP                                                           08500000
         AIF   ('&CTROP' NE 'READRST').CB9                              08550000
&CBSW(1) SETB  1                                                        08600000
&CBSW(2) SETB 1                                                         08650000
.CB9     ANOP                                                           08700000
         AIF   ('&CTROP' NE 'READSET').CBEND                            08750000
&CBSW(1) SETB  1                                                        08800000
&CBSW(2) SETB  1                                                        08850000
&CBSW(3) SETB  1                                                        08900000
.CB6     ANOP                                                           08950000
         AIF   ('&CTROP' EQ 'READ' AND '&CTRRD' EQ 'GROUP').CB11        09000000
         AIF   ('&CTROP' EQ 'RDRESID' AND '&CTRRD' EQ 'GROUP').CB12     09050000
         AGO   .CBEND                                                   09100000
.CB11    ANOP                                                           09150000
&CBSW(1) SETB  1                                                        09200000
&CBSW(5) SETB  1                                                        09250000
         AGO   .CBEND                                                   09300000
.CB12    ANOP                                                           09350000
&CBSW(1) SETB  1                                                        09400000
&CBSW(2) SETB  1                                                        09450000
&CBSW(5) SETB  1                                                        09500000
.CBEND   ANOP                                                           09550000
         DC    B'&CBSW(1)&CBSW(2)&CBSW(3)&CBSW(4)&CBSW(5)&CBSW(6)&CBSW(X09600000
               7)&CBSW(8)'       CONTROL BYTE                           09650000
&B       SETA  0                                                        09700000
&IECAS   SETB  1                                                        09750000
&IECDE   SETB  1                                                        09800000
         AIF   (T'&MSG EQ 'O' OR &IECSW(2)).ADD                         09850000
         AIF   (NOT &IECSW(8)).YOYO                                     09900000
         MNOTE 3,'MSG OPERAND CANNOT BE CODED IN DEULIST MACRO IF A    X09950000
               CTRLIST MACRO FOLLOWS'                                   10000000
.YOYO    ANOP                                                           10050000
&IECSW(8) SETB 1                                                        10100000
         DC    YL1(&IECNDGP(4))  END OF LIST BYTE                       10150000
&B       SETA  K'&MSG-2                                                 10200000
         DC    YL1(&B)   MESSAGE LENGTH                                 10250000
         DC    C&MSG                                                    10300000
&B       SETA  &B+1                                                     10350000
.ADD     ANOP                                                           10400000
&IECNDGP(1) SETA &IECNDGP(1)+5+&B                                       10450000
         AGO   .MEND                                                    10500000
.NOGEN   ANOP                                                           10550000
         MNOTE 12,'TEXT GENERATION SUPPRESSED'                          10600000
.MEND    MEND                                                           10650000
