         MACRO                                                          00090000
&NAME    DCB   &DDNAME=0,&MACRF=,                      FOUNDATION BLOCK*00180000
               &BFTEK=,&BFALN=,&EODAD=1,&RECFM=,&EXLST=0,     EXTENSION*00270000
               &BUFNO=0,&BUFCB=1,&BUFL=0,&DSORG=,&IOBAD=1,       COMMON*00360000
               &IMSK=,&UMSK=,&EOEA=0,&PCIA=0,                 EXCP APP1*00450000
               &SIOA=0,&CENDA=0,&XENDA=0,&AERR=0,&PGFX=NO,    EXCP APP2*00540000
               &HIARCHY=,                                              *00630000
               &OPTCD=,&SYNAD=1,&BLKSIZE=0,&NCP=0,&LRECL=0,&EROPT=,    *00720000
               &BUFRQ=0,&CLPS=1,&INTVL=0,&CPRI=,             QTAM LINE1*00810000
               &THRESH=,&CPOLL=,&LCBAD=1,                     QTAMLINE2*00900000
               &TRMAD=1,&SOWA=0,                             QTAM QUEUE*00990000
               &MON=,&MONDLY=,&WRU=,&IAM=,&EOM=,&EOT=,   BTAM/QTAM WTTA*01080000
               &LIMCT=0,                                           BDAM*01170000
               &NTM=0,&CYLOFL=0,&RKP=0,&MSWA=1,                  ISAM 1*01260000
               &SMSI=0,&SMSW=0,&MSHI=1,&DBUFNO=0,                ISAM 2*01350000
               &IMGADR=0,&SSRTN=0,&DCBHDR=0,&IMGRTE=0,          YL03123,01440000
               &QSAMEX=0,                                      @Y30GS11,01490000
               &DEVD=,&KEYLEN=,&TRTCH=,&DEN=,&ERRCNT=0,&FRID=,  YL03127,01530000
               &PRTSP=,&CODE=,&MODE=,&STACK=,                          *01620000
               &GNCP=1,&POLST=0,&GTYPE=EXPRESS,&ERROPT=,&LERB=,   13549*01710000
               &BUFCT=255,&REPOS=N,&TRANS=,&SCT=,&INVLIST=,&BUFOUT=,   *01800000
               &MH=,&PCI=,&BUFMAX=,&BUFIN=,&BUFSIZE=,&RESERVE=,        *01890000
               &BACKUP=NO,&BKUPDCB=0,&BRINGUP=NO,&DMPAUTO=NO,    ICB447*01900000
               &DUMPDCB=0,&IPLAUTO=NO,&IPLTXID=,&CKPTDCB=0,      ICB447*01910000
               &FUNC=,                                                 *01930000
               &READYQ=,&POWERON=NO,                               @01C*01940000
               &BUFOFF=,                                     ICBI DCB-3*01980000
               &STOP=                                        ICBI DCB-3 02030000
.*                                                                      02070000
.*                      SET SYMBOL DECLARATIONS                         02160000
.*                                                                      02250000
         GBLA  &A0                                                      02340000
         GBLB  &DSORG0,&DSORG1,&DSORG2,&DSORG3,&DSORG4,&DSORG5,&DSORG6  02430000
         GBLB  &MACRFD,&MACRFE,&MACRFF,&MAC5,&MAC6,&MAC7,&FXSW,&RECFM0  02520000
         GBLB  &DSORG7,&MACRF0,&MACRF1,&MACRF2,&MACRF3,&MACRF4,&MACRF5  02610000
         GBLB  &MACRF6,&MACRF7,&MACRF8,&MACRF9,&MACRFA,&MACRFB,&MACRFC  02700000
         GBLB  &RECFM1,&RECFM2,&RECFM3,&RECFM4,&RECFM5,&RECFM6,&RECFM7  02790000
         GBLB  &OPTCD0,&OPTCD1,&OPTCD2,&OPTCD3,&OPTCD4,&OPTCD6,&OPTCD7  02880000
         GBLB  &DSORG9,&DSORGA                                          02970000
         GBLB  &COMSW,&MAC4,&DSORG8,&OPTCD5                        RER1 03060000
         LCLA  &A1,&A2,&B(4)                                      13549 03150000
         LCLB  &IFLGS4,&IFLGS5,&IFLGS6,&IFLGS7                          03240000
         LCLB  &B0,&B1,&B2,&B3,&B4,&B5,&B6,&B7                          03330000
         LCLB  &WTTFLG2,&WTTFLG3                                        03420000
         LCLC  &MTROFF,&EOMC,&EOTC                                      03510000
         LCLC  &C0,&C1,&ERROPTN,&C2                               13549 03600000
         LCLA  &BA1,&BA2                                                03690000
         LCLB  &BS2,&BS3,&BS4,&BS5,&BS6,&BS7,&BS8                       03780000
         LCLB  &BI                                                      03870000
         LCLA  &A4                                                      03960000
.* TCAM SUPPORT OPERANDS                                                04050000
         LCLA  &SCTAD,&ICDE,&INTFACE                                    04140000
         LCLB  &SW                                                      04230000
         LCLC  &TRNTBL,&TRNNO                                           04320000
         LCLA  &WRKA,&WRKB,&WRKC                                        04410000
         LCLA  &LGTH,&INCR,&NUMENT                                      04500000
         LCLA  &TC1                                                     04560000
         LCLC  &TC(4)                                                   04620000
.*                                                                      04680000
.* FUNC SUPPORT OPERANDS                                                04700000
         LCLA  &AFUNC,&AFUNC1,&AFUNC2,&AFUNC3,&AMODE                    04720000
         LCLC  &LFUNC                                                   04740000
.*                                                                      04750000
.*         OS/VS2 RELEASE 03 DELETIONS/CHANGES                          04752000
.*0000104400,116100,117900,144900-145800,152100,156600-157500, @ZA02213 04753000
.*0000162000-162900,197100,383400,471600-485100,546300,573300, @ZA02213 04754000
.*0000657000-658800,693900,694800,711900-715500,767700-768600  @ZA02213 04755000
.*0000587700                                                   @ZA10541 04756000
.*A000       SYSROUTE FROM OY14164                             @ZA13469 04756500
.*0000                                                         @ZA21103 04756700
.*D229050                                                      @ZA41552 04757000
.*C229050,D22950                                               @ZA43308 04757400
.*         OS/VS2 RELEASE 02 DELETIONS/CHANGES                          04758000
.*0000                                                         @ZA00022 04762000
.*0000                                                         @ZA00012 04764000
.*0000                                                         @ZA01331 04766000
.*0000286220,286240,286290                                     @Y30GS11 04766100
.*$01=OZ82292,EDM1102,,FEGHA: BTAM POWER-ON SUPPORT                @01A 04768000
.*         OS/VS2 RELEASE 01 DELETIONS/CHANGES                          04770000
.*                                                              YA02128 04820000
.*         RELEASE 21 DELETIONS/CHANGES                                 04950000
.*                                                               A42398 04990000
.*0000833400                                                     A49372 05000000
.*         RELEASE 20 DELETIONS/CHANGES                                 05040000
.*  RESEQUENCED DCB IN RELEASE 20 TO ACCOMMODATE TCAM CHANGES    S20002 05130000
.*                                                               S20038 05220000
.*                                                               A34467 05240000
.*                                                               M0621  05260000
.*                                                               A33170 05280000
.*                                                               M0624  05290000
.*                                                               M0666  05300000
.*                                                                      05302000
         AIF   ('&DSORG' NE 'TR').IHB01  IF NOT DSORG = TR       ICB477 05304000
&NAME    IHB03 &BACKUP,&BKUPDCB,&BRINGUP,           EXPAND DSORG=TR DCBX05306000
               &DDNAME,&DMPAUTO,&DUMPDCB,&EXLST,                       X05308000
               &IPLAUTO,&IPLTXID,&MACRF,&CKPTDCB                 ICB477 05308400
         MEXIT                                                          05308800
.*                                                                      05310000
.*             ANALYZE DSORG, MACRF, RECFM, OPTCD AND NEGATIVE OFFSET   05400000
.*                                                                      05490000
.IHB01   IHB01 &DSORG,&MACRF,&BFTEK,&BFALN,&EODAD,&RECFM,&EXLST,       *05580000
               &BUFCB,&BUFL,&IOBAD,&EOEA,&PCIA,&SIOA,&CENDA,&XENDA,    *05670000
               &AERR,&PGFX,&OPTCD,&BUFNO,&DEVD,&REPOS                   05760000
         AIF   (&MACRF0 OR &MACRF1 OR &MACRF2 OR &MACRF3 OR &MACRF4 OR *05850000
               &MACRF5 OR &MACRF6 OR &MACRF7 OR &MACRF8 OR &MACRF9 OR &*05940000
               MACRFA OR &MACRFB OR &MACRFC OR &MACRFD).DGN0            06030000
         AIF   (&MACRFE OR &MACRFF).DGN0                                06120000
         IHBERMAC 171                                                   06210000
.* THE FOLLOWING LINE OF CODE PUTS THE NAME FOR THE DCB ON A FULL WORD  06240000
.* BOUNDARY IN CASE THERE IS A SEVERE ERROR WHICH WOULD INHIBIT DCB     06270000
.* EXPANSION.                                                           06300000
&NAME    DS    0F            GENERATED TO DEFINE NAME                   06330000
         MEXIT                                                          06390000
.*                      DIAGNOSE DEVICE SUB-PARAMETERS                  06480000
.*                                                                      06570000
.DGN0    AIF   (NOT &DSORG8).DGN00                                      06660000
&NAME    IHB02 &DSORG,&MACRF,&DDNAME,&EXLST,&GNCP,&POLST,&GTYPE         06750000
         AIF   ( T'&HIARCHY EQ 'O').GEN7C                               06840000
         IHBERMAC 190,HIARCHY             ERROR                         06930000
         AGO   .GEN7C                                                   07020000
.DGN00   AIF   (T'&KEYLEN EQ 'O' OR &DSORG0 OR &DSORG2 OR (&A0 LE 4 AND*07110000
                '&DEVD' NE 'TA' AND (&DSORG1 OR &DSORG6 OR &MACRF0))).D*07200000
               GN1                                                      07290000
         IHBERMAC 100,KEYLEN                                            07380000
.DGN1    AIF   (T'&CODE EQ 'O' OR '&DEVD' EQ 'PT').DGN2                 07470000
         AIF   ('&DEVD' EQ 'BS' AND &DSORG3).DGN2                       07560000
         IHBERMAC 101,CODE                                              07650000
.DGN2    AIF   ('&DEVD' EQ 'PC' OR '&DEVD' EQ 'RD').DGN3                07740000
         AIF   (T'&MODE EQ 'O').DGN2A                                   07830000
         AIF   ('&DEVD' EQ 'BS' AND &DSORG3).DGN2A                      07920000
         IHBERMAC 102,MODE                                              08010000
.DGN2A   AIF   (T'&STACK EQ 'O').DGN3                                   08100000
         IHBERMAC 103,STACK                                             08190000
.DGN3    AIF   (T'&PRTSP EQ 'O' OR '&DEVD' EQ 'PR').DGN4                08280000
         IHBERMAC 104,PRTSP                                             08370000
.DGN4    AIF   (T'&TRTCH EQ 'O' OR '&DEVD' EQ 'TA').DGN5                08460000
         IHBERMAC 105,TRTCH                                             08550000
.DGN5    AIF   (T'&DEN EQ 'O' OR '&DEVD' EQ 'TA').DGN6                  08640000
         IHBERMAC 106,DEN                                               08730000
.*                                                                      08820000
.*                      DIAGNOSE BTAM-QTAM OPERANDS                     08910000
.*                                                                      09000000
.DGN6    AIF   ('&DEVD' EQ 'WT' AND &DSORG3).DGN61                      09090000
         AIF   (T'&MON EQ 'O').DGN601                                   09180000
         IHBERMAC 107,MON                                               09270000
.DGN601  AIF   (T'&MONDLY EQ 'O').DGN602                                09360000
         IHBERMAC 108,MONDLY                                            09450000
.DGN602  AIF   (T'&WRU EQ 'O').DGN603                                   09540000
         IHBERMAC 109,WRU                                               09630000
.DGN603  AIF   (T'&IAM EQ 'O').DGN604                                   09720000
         IHBERMAC 110,IAM                                               09810000
.DGN604  AIF   (T'&EOM EQ 'O').DGN605                                   09900000
         IHBERMAC 111,EOM                                               09990000
.DGN605  AIF   (T'&EOT EQ 'O').DGN61                                    10080000
         IHBERMAC 112,EOT                                               10170000
.DGN61   ANOP                                                           10260000
         AIF   (&DSORG3 AND (&MACRF1 OR &MACRF9)).DGN6G                 10350000
         AIF   ('&BUFRQ' EQ '0').DGN6B                         @ZA02213 10440000
         IHBERMAC 107,BUFRQ                                             10530000
.DGN6B   AIF   ('&CLPS' EQ '1').DGN6C                                   10620000
         IHBERMAC 109,CLPS                                              10710000
.DGN6C   AIF   (&DSORG9 OR &DSORGA).DGN6D                               10800000
         AIF   ('&INTVL' EQ '0').DGN6D                                  10890000
         IHBERMAC 110,INTVL                                             10980000
.DGN6D   AIF   (&DSORG9 OR &DSORGA).DGN6E                               11070000
         AIF   (T'&CPRI EQ 'O').DGN6E                                   11160000
         IHBERMAC 111,CPRI                                              11250000
.DGN6E   ANOP                                                           11340000
.DGN6F   AIF   (T'&CPOLL EQ 'O').DGN6G                                  11430000
         IHBERMAC 113,CPOLL                                             11520000
.DGN6G   AIF   ('&SOWA' EQ '0').DGN6A                          @ZA02213 11610000
         IHBERMAC 114,SOWA                                              11700000
.DGN6A   AIF   ('&TRMAD' EQ '1').DGN6H                         @ZA02213 11790000
         IHBERMAC 108,TRMAD                                       13549 11880000
.DGN6H   ANOP                                                     13549 11970000
.* THIS CODE IS INTENDED TO ALLOW BOTH 'ERROPT' AND 'EROPT' SPELLING    12060000
.* FOR BTAM USERS.  ALL OTHER USERS WILL NOT BE PERMITTED TO USE        12150000
.* THIS SPELLING.                                                       12240000
.* DELETION OF THIS CODE WILL DISALLOW THAT SPELLING.                   12330000
         AIF   (&DSORG3 AND (&MACRF2 OR &MACRFA)).ISBTAM          13549 12420000
         AIF   (T'&ERROPT EQ 'O').DGN6I                           13549 12510000
         IHBERMAC 54,,ERROPT                                            12600000
         MEXIT                                                    13549 12690000
.ISBTAM  AIF   (T'&ERROPT EQ 'O').CKEROPT                         13549 12780000
&ERROPTN SETC  '&ERROPT'                                          13549 12870000
&A2      SETA  K'&ERROPT                                          13549 12960000
&C2      SETC  'ERROPT'                                           13549 13050000
         AGO   .DGN6I                                             13549 13140000
.CKEROPT ANOP                                                     13549 13230000
.* END OF CODE DELETION REGARDING 'ERROPT' KEYWORD.               13549 13320000
&C2      SETC  'EROPT'                                            13549 13410000
         AIF   (T'&EROPT EQ 'O').OMITTED                          13549 13500000
&ERROPTN SETC  '&EROPT'                                           13549 13590000
&A2      SETA  K'&EROPT                                           13549 13680000
         AGO   .DGN6I                                             13549 13770000
.OMITTED ANOP                                                     13549 13860000
&ERROPTN SETC  'E'                     ASSIGN BTAM STANDARD VALUE 13549 13950000
&A2      SETA  1                                                  13549 14040000
.DGN6I   ANOP                                                     13549 14130000
.*                                                                      14220000
.*                      DIAGNOSE COMMON OPERANDS                        14310000
.*                                                                      14400000
.DGN7    AIF   (&COMSW AND NOT (&DSORG3 AND (&MACRF1 OR &MACRF9))).DGN7*14401000
               C                                               @ZA02213 14402000
         AIF   ('&BUFNO' EQ '0').DGN7A                                  14670000
         IHBERMAC 115,BUFNO                                             14760000
.DGN7A   AIF   ('&BUFCB' EQ '1').DGN7B                                  14850000
         IHBERMAC 116,BUFCB                                             14940000
.DGN7B   AIF   ('&BUFL' EQ '0').DGN7C                                   15030000
         IHBERMAC 117,BUFL                                              15120000
.DGN7C   AIF   ('&IOBAD' EQ '1' OR &DSORG3 OR &MACRF0).DGN7D   @ZA02213 15210000
         IHBERMAC 118,IOBAD                                             15300000
.*                                                                      15390000
.*                      DIAGNOSE EXTENSION OPERANDS                     15480000
.*                                                                      15570000
.DGN7D   AIF   (&FXSW AND NOT (&DSORG3 AND (&MACRF1 OR &MACRF9))).DGN7I 15571000
.*                                                             @ZA02213 15572000
         AIF   (T'&BFTEK EQ 'O').DGN7E                                  15840000
         IHBERMAC 119,BFTEK                                             15930000
.DGN7E   AIF   (T'&BFALN EQ 'O').DGN7F                                  16020000
         IHBERMAC 120,BFALN                                             16110000
.DGN7F   AIF   ('&EODAD' EQ '1').DGN7G                         @ZA02213 16200000
         IHBERMAC 121,EODAD                                             16380000
.DGN7G   AIF   (T'&RECFM EQ 'O').DGN7H                                  16470000
         IHBERMAC 122,RECFM                                             16560000
.DGN7H   AIF   ('&EXLST' EQ '0' OR &DSORG3).DGN7I                       16650000
         IHBERMAC 123,EXLST                                             16740000
.DGN7I   AIF   ('&DDNAME' NE '0').DGN7J                                 16830000
         IHBERMAC 167                                                   16920000
         AGO   .DGN7L                                                   17010000
.DGN7J   AIF   (K'&DDNAME LE 8).DGN7K                                   17100000
         IHBERMAC 168                                                   17190000
.DGN7K   ANOP                'DDNAME SHORT' MSG REMOVED            MCOK 17280000
.*                                                                      17370000
.*                      DIAGNOSE EXCP INTERFACE OPERANDS                17460000
.*                                                                      17550000
.DGN7L   AIF   (&MACRF0).DGN7T                                          17640000
         AIF   (T'&IMSK EQ 'O').DGN7M                                   17730000
         IHBERMAC 124,IMSK                                              17820000
.DGN7M   AIF   (T'&UMSK EQ 'O').DGN7N                                   17910000
         IHBERMAC 125,UMSK                                              18000000
.DGN7N   AIF   ('&EOEA' EQ '0').DGN7O                                   18090000
         IHBERMAC 126,EOEA                                              18180000
.DGN7O   AIF   ('&PCIA' EQ '0').DGN7P                                   18270000
         IHBERMAC 127,PCIA                                              18360000
.DGN7P   AIF   ('&SIOA' EQ '0').DGN7Q                                   18450000
         IHBERMAC 128,SIOA                                              18540000
.DGN7Q   AIF   ('&CENDA' EQ '0').DGN7R                                  18630000
         IHBERMAC 129,CENDA                                             18720000
.DGN7R   AIF   ('&XENDA' EQ '0').DGN7S                                  18810000
         IHBERMAC 130,XENDA                                             18900000
.DGN7S   AIF   ('&AERR' EQ '0').DGN7T                                   18990000
         IHBERMAC 131,AERR                                              19080000
.DGN7T   AIF   (T'&UMSK EQ 'O' OR '&AERR' NE '0' OR NOT &MACRF0).DGN7U  19170000
         IHBERMAC 175                                                   19260000
.DGN7U   AIF   ('&SIOA' NE '0' AND '&PGFX' NE 'YES').DGN8               19270000
         AIF   ('&SIOA' EQ '0' AND '&PGFX' NE 'YES').DGN8               19280000
         AIF   ('&SIOA' NE '0' AND '&PGFX' EQ 'YES').DGN8               19290000
         IHBERMAC 128,PGFX                                              19300000
.*                                                                      19350000
.*                      DIAGNOSE ACCESS METHOD INTERFACE OPERANDS       19440000
.*                                                                      19530000
.DGN8    AIF   (NOT &MACRF0 AND (&DSORG0 OR &DSORG1 OR &DSORG6)).DGN8D  19620000
         AIF   ('&SYNAD' EQ '1' OR &DSORG2).DGN8A              @ZA02213 19710000
         IHBERMAC 132,SYNAD                                             19800000
.DGN8A   AIF   ('&BLKSIZE' EQ '0' OR (&DSORG2 OR &DSORGA)).DGN8B        19890000
.*                                                           ICBI DCB-9 19940000
         IHBERMAC 133,BLKSIZE                                           19980000
.DGN8B   AIF   ('&NCP' EQ '0').DGN8C                                    20070000
         IHBERMAC 134,NCP                                               20160000
.DGN8C   AIF   ('&LRECL' EQ '0').DGN8D                                  20250000
         IHBERMAC 135,LRECL                                             20340000
.DGN8D   AIF   (T'&EROPT EQ 'O' OR (&DSORG1 OR &DSORG3)).DGN8E    13549 20430000
         IHBERMAC 136,EROPT                                             20520000
.DGN8E   AIF   ('&LIMCT' EQ '0' OR &DSORG2).DGN8F                       20610000
         IHBERMAC 137,LIMCT                                             20700000
.DGN8F   AIF   (&DSORG0).DGN9                                           20790000
         AIF   ('&NTM' EQ '0').DGN8G                                    20880000
         IHBERMAC 138,NTM                                               20970000
.DGN8G   AIF   ('&CYLOFL' EQ '0').DGN8H                                 21060000
         IHBERMAC 139,CYLOFL                                            21150000
.DGN8H   AIF   ('&RKP' EQ '0').DGN8I                                    21240000
         IHBERMAC 140,RKP                                               21330000
.DGN8I   AIF   ('&MSWA' EQ '1').DGN8J                                   21420000
         IHBERMAC 141,MSWA                                              21510000
.DGN8J   AIF   ('&SMSI' EQ '0').DGN8K                                   21600000
         IHBERMAC 142,SMSI                                              21690000
.DGN8K   AIF   ('&SMSW' EQ '0').DGN8L                                   21780000
         IHBERMAC 143,SMSW                                              21870000
.DGN8L   AIF   ('&MSHI' EQ '1').DGN8M                                   21960000
         IHBERMAC 144,MSHI                                              22050000
.DGN8M   AIF   ('&DBUFNO' EQ '0').DGN9                                  22140000
         IHBERMAC 145,DBUFNO                                            22230000
.DGN9    ANOP                                                           22320000
.*                                                                      22322000
.*             DIAGNOSE FUNC OPERAND                                    22324000
.*                                                                      22326000
&AFUNC   SETA  0                                                        22328000
         AIF   ('&FUNC' EQ '').DGN90Z                                   22330000
&AFUNC1  SETA  K'&FUNC                                                  22332000
         AIF   ('&DEVD' EQ 'RD' OR '&DEVD' EQ 'PC').DGN90A     @ZA00022 22332300
         IHBERMAC 100,FUNC   IHB050 FUNC INCONSISTENT--IGNORED @ZA00022 22332900
.DGN90A  ANOP                                                           22334000
&AFUNC2  SETA  2                                                        22336000
&AFUNC3  SETA  7                                                        22338000
.DGN90C  AIF   ('&FUNC'(&AFUNC1,1) EQ 'IRPWDXT'(&AFUNC3,1)).DGN90E      22340000
&AFUNC3  SETA  &AFUNC3-1                                                22342000
&AFUNC2  SETA  &AFUNC2+&AFUNC2                                          22344000
         AIF   (&AFUNC3 NE 0).DGN90C                                    22346000
&LFUNC   SETC  '&FUNC'(&AFUNC1,1)                                       22348000
         MNOTE 12,'IBH0132 INVALID CHARACTER IN FUNC OPERAND-&LFUNC'    22350000
&AFUNC   SETA  0                                                        22352000
         AGO   .DGN90Z                                                  22354000
.DGN90E  ANOP                                                           22356000
&AFUNC   SETA  &AFUNC+&AFUNC2                                           22358000
&AFUNC1  SETA  &AFUNC1-1                                                22360000
         AIF   (&AFUNC1 NE 0).DGN90A                                    22362000
         AIF   (&AFUNC EQ 128 OR &AFUNC EQ 64 OR &AFUNC EQ 32).DGN90Z   22364000
         AIF   (&AFUNC EQ 16 OR &AFUNC EQ 18 OR &AFUNC EQ 22).DGN90Z    22366000
         AIF   (&AFUNC EQ 96 OR &AFUNC EQ 104 OR &AFUNC EQ 80).DGN90Z   22368000
         AIF   (&AFUNC EQ 82 OR &AFUNC EQ 86 OR &AFUNC EQ 48).DGN90Z    22370000
         AIF   (&AFUNC EQ 52 OR &AFUNC EQ 54 OR &AFUNC EQ 112).DGN90Z   22372000
         AIF   (&AFUNC EQ 116 OR &AFUNC EQ 118 OR &AFUNC EQ 120).DGN90Z 22374000
         AIF   (&AFUNC EQ 20 OR &AFUNC EQ 84).DGN90Z                    22376000
         MNOTE 12,'IHB0131 INVALID COMBINATION OF CHARACTERS IN FUNC OP*22378000
               ERAND-&FUNC'                                             22380000
&AFUNC   SETA  0                                                        22382000
.DGN90Z  ANOP                                                           22384000
.*                                                                      22410000
.*                      GENERATE ORIGIN OF DCB                          22500000
.*                                                                      22590000
         SPACE 2                                                        22680000
*                       DATA CONTROL BLOCK                              22770000
*                                                                       22860000
.* THE FOLLOWING LINES OF CODE CHECK TO SEE WHETHER THE ORG VALUE       22869000
.* CALCULATED BY IHB01 HAS A MEANING OTHER THAN ZERO.  IF THE VALUE     22878000
.* IS ZERO, THE ORG WILL NOT BE PERFORMED.  THE DCB WILL BE ALIGNED     22887000
.* TO A FULL WORD BOUNDARY.                           @ZA43308 @ZA41552 22896000
         AIF   (&A0 NE 0).DGN9A                                         22905000
&NAME    DC    0F'0'                   ORIGIN ON WORD BOUNDARY          22914000
         SPACE 1                                                        22923000
         AGO   .DGN9B                                                   22932000
.DGN9A   ANOP                                                           22941000
.*       ORG   *-&A0                   TO ELIMINATE UNUSED SPACE        22950000
&NAME    DS    0F'0'                    ORIGIN ON WORD BOUNDARY         23040000
         ORG   *+&A0                   TO ORIGIN GENERATION             23130000
         SPACE 1                                                        23220000
.DGN9B   ANOP                                                           23310000
         AIF   (&A0 EQ 40).GEN4A       IF NO COMMON OR EXTENSION        23400000
.*                                                                      23490000
.*                      GENERATE DEVICE DEPENDENCY INTERFACE            23580000
.*                                                                      23670000
         AIF   (&DSORG3 AND '&DEVD' EQ 'WT').GEN1Q                      23760000
         AIF   (&A0 GT 4).GEN10         IF NOT TA,DA,OR MR              23850000
&A1      SETA  16-&A0                                                   23940000
         AIF   ('&DEVD' NE 'TA').GEN1D   IF NOT TA                      24030000
*                       MAGNETIC TAPE DEVICE INTERFACE                  24120000
         SPACE 1                                                        24210000
         DC    BL&A1.'0'                NERRS,NOISE,UERRS,BLKCT         24300000
         AIF   (T'&TRTCH EQ 'O').TA1         IF TRTCH NOT SPECIFIED     24390000
         AIF   ('&TRTCH' EQ 'E' OR '&TRTCH' EQ 'T' OR '&TRTCH' EQ 'C' O*24480000
               R '&TRTCH' EQ 'ET' OR '&TRTCH' EQ 'TE').TA1  IF VALID    24570000
         IHBERMAC 150,TRTCH,&TRTCH                                      24660000
.*                                                                      24750000
.TA1     ANOP                                                           24840000