         MACRO                                                          00050000
&NAME    DEBCHK &CBAD,                                                 *00100000
               &TYPE=,                                                 *00106200
               &AM=,                                                   *00112400
               &MF=O,                                                  *00118600
               &BRANCH=NO,                                             *00124800
               &TCBADDR=,                                              *00131000
               &SAVREG=,                                               *00137200
               &KEYADDR=                                       @ZA44985 00143400
.*                                                                      00150000
.*       MACRO DELETIONS/CHANGES FOR VS2 RELEASE 3.8                    00162000
.*C1575,162,1625,163,1665,167832                               @ZA60608 00174000
.* $F01=OZ63828,EDM1102,AIF (T'KEYADDR NE '0') STMT INCORRECT     @F01A 00186000
.*                                                                      00198000
.*       MACRO DELETIONS/CHANGES FOR VS2 RELEASE 3                      00210000
.*0000082000,085000                                             Y30ASJC 00220000
.*                                                                      00250000
.*       MACRO DELETIONS/CHANGES FOR VS2 RELEASE 2                      00275000
.*                                                                      00300000
.********************************************************************** 00350000
.*                                                                      00400000
.* MODULE NAME = DEBCHK (VS2-2)                                         00450000
.*                                                                      00500000
.* DESCRIPTIVE NAME = DEB VALIDITY CHECK ROUTINE SVC                    00550000
.*                                                                      00600000
.* COPYRIGHT = NONE                                                     00650000
.*                                                                      00700000
.* STATUS = CHANGE LEVEL 000                                            00750000
.*                                                                      00800000
.* FUNCTION = THIS MACRO SETS UP THE INTERFACE FOR IFGDEBCK.            00850000
.* FOR THE SVC 117 ENTRY                                                00875000
.*            IT LOADS THE ACCESS METHOD VALUE (IF ANY) IN BITS 0 - 7   00900000
.*            OF REGISTER 0 AND THE TYPE FUNCTION CODE IN BIT 8 - 31    00950000
.*            OF REGISTER 0.  IT LOADS REGISTER 1 WITH THE DEB ADDRESS  01000000
.*            IF TYPE=PURGE OR WITH THE DCB ADDRESS IF THE FUNCTION     01050000
.*            CODE IS ADD, DELETE, OR VERIFY.  IT THEN LOADS REGISTER   01100000
.*            15 WITH THE VALUE 2 AND ISSUES SVC 117.                   01150000
.*                                                                      01200000
.*            REGISTER 0: BITS 0 - 7:  ACCESS METHOD VALUE:             01250000
.*                                     TCAMAP = X'84'                   01300000
.*                                     SUBSYS = X'81'                   01400000
.*                                     ISAM   = X'80'                   01450000
.*                                     BDAM   = X'40'                   01500000
.*                                     SAM    = X'20'                   01550000
.*                                     BPAM   = X'20'                   01600000
.*                                     TAM    = X'10'                   01650000
.*                                     GAM    = X'08'                   01700000
.*                                     TCAM   = X'04'                   01750000
.*                                     EXCP   = X'02'                   01800000
.*                                     VSAM   = X'01'                   01850000
.*                                     NONE   = X'00'                   01900000
.*                        BITS 8 - 31: TYPE FUNCTION CODE:              01950000
.*                                     VERIFY = 0                       02000000
.*                                     ADD    = 1                       02050000
.*                                     DELETE = 2                       02100000
.*                                     PURGE  = 3                       02150000
.*                                                                      02200000
.*            REGISTER 1: BITS 0 - 7:  X'00'                            02250000
.*                        BITS 8 - 31: DCB POINTER IF TYPE NOT PURGE    02300000
.*                                     DEB POINTER IF TYPE=PURGE        02350000
.*                                                                      02400000
.*      FOR THE BRANCH ENTRY:                                           02404900
.*            IT MODESETS TO THE USER KEY AND LOADS THE DEB ADDRESS     02409800
.*            INTO REGISTER 1, THE TCB ADDRESS INTO REGISTER 10, THEN   02414700
.*            MODESETS TO SUPERVISOR KEY AND LOADS THE BRANCH ENTRY     02419600
.*            ADDRESS OF DEBCHK INTO REGISTER 15, AND BRANCH AND LINKS  02424500
.*            TO DEBCHK ON REGISTER 14. ON RETURN FROM DEBCHK, IT       02429400
.*            RESTORES THE PROTECT KEY IN EFFECT AT ENTRY TO THE MACRO. 02434300
.*                                                                      02439200
.*                                                                      02444100
.*            DEBCHK ALSO HAS A LIST FORM WHICH GENERATES ONLY THE      02450000
.*            ACCESS METHOD TYPE (ONE BYTE).                            02500000
.*                                                                      02550000
.* NOTES = SEE BELOW                                                    02600000
.*                                                                      02650000
.*      DEPENDENCIES = NONE                                             02700000
.*                                                                      02750000
.*      RESTRICTIONS = NONE                                             02800000
.*                                                                      02850000
.*      REGISTER CONVENTIONS = NOT APPLICABLE                           02900000
.*                                                                      02950000
.* PATCH LABEL = NOT APPLICABLE                                         03000000
.*                                                                      03050000
.* MODULE TYPE = MACRO                                                  03100000
.*                                                                      03150000
.*      PROCESSOR = ASSEMBLER LANGUAGE                                  03200000
.*                                                                      03250000
.*      MODULE SIZE = NOT APPLICABLE                                    03300000
.*                                                                      03350000
.*      ATTRIBUTES = NOT APPLICABLE                                     03400000
.*                                                                      03450000
.* ENTRY POINT = NOT APPLICABLE                                         03500000
.*                                                                      03550000
.*      PURPOSE = SEE FUNCTION                                          03600000
.*                                                                      03650000
.*      LINKAGE = LABEL DEBCHK CBAD,TYPE=,AM=,MF=                       03700000
.*                                                                      03750000
.*      INPUT =                                                         03800000
.*                                                                      03850000
.*                OPTIONAL LABEL SPECIFIED AS AN ACCEPTABLE ASSEMBLER   03900000
.*                LABEL.                                                03950000
.*                                                                      04000000
.*                THE CONTROL BLOCK ADDRESS IS THE ONLY POSITIONAL      04050000
.*                PARAMETER. FOR BRANCH=NO, IT IS EITHER A POINTER TO   04100000
.*                THE DCB OR DEB, DEPENDING UPON THE TYPE FUNCTION      04125000
.*                CODE. FOR BRANCH=YES, IT IS EITHER A REGISTER OR      04150000
.*                THE LABLE OF A FULL WORD FIELD POINTING TO A DCB.     04175000
.*                                                                      04200000
.*                TYPE= IS A KEYWORD PARAMETER WHICH CAN BE EITHER      04250000
.*                ADD, DELETE, PURGE, OR VERIFY.  IF IT IS OMITTED,     04300000
.*                VERIFY IS THE DEFAULT.                                04350000
.*                                                                      04400000
.*                AM= IS A KEYWORD PARAMETER WHICH CAN HAVE ANY OF      04450000
.*                THE ACCESS METHOD VALUES SPECIFIED UNDER 'FUNCTION'.  04500000
.*                                                                      04550000
.*                MF= IS A KEYWORD PARAMETER WHICH CAN BE EITHER        04600000
.*                MF=E (EXECUTE FORM) OR MF=L (LIST FORM).  THE         04650000
.*                LIST FORM OF DEBCHK GENERATES ONLY THE ACCESS         04700000
.*                METHOD TYPE.  THE DEFAULT IF MF=E.                    04750000
.*                                                                      04800000
.*                BRANCH= IS A KEYWORD PARAMETER WHICH CAN BE EITHER    04801100
.*                YES OR NO. IF OMITTED, THE DEFAULT IS NO. IF YES,     04802200
.*                TCBADDR AND KEYADDR ARE REQUIRED, TYPE= MUST BE       04803300
.*                VERIFY IF SPECIFIED, AM= IS IGNORED, AND MF=L IS      04804400
.*                IGNORED.                                              04805500
.*                                                                      04806600
.*                TCBADDR= IS A KEYWORD PARAMETER WHICH CAN BE A LABEL  04807700
.*                OR A REGISTER. IT IS IGNORED IF BRANCH=NO OR BRANCH=  04808800
.*                IS OMITTED. IT IS REQUIRED IF BRANCH=YES. IT IS A     04809900
.*                REGISTER OR A LABLE OF A FULL WORD WHICH POINTS TO    04811000
.*                THE TCB TO BE USED BY DEBCHK.                         04812100
.*                                                                      04813200
.*                KEYADDR= IS A KEYWORD PARAMETER WHICH CAN BE A LABEL  04814300
.*                OR A BASE DISPLACEMENT VALUE. IT IS IGNORED IF        04815500
.*                BRANCH=NO OR OMITTED.  IT IS REQUIRED IF BRANCH=YES.  04816700
.*                IT IS A LABEL OF A BYTE CONTAINING THE USERS KEY TO   04817900
.*                BE USED IN A MODESET MACRO PRIOR TO LOADING THE DEB   04819100
.*                ADDRESS INTO REGISTER 1.                              04820300
.*                                                                      04822000
.*                SAVREG= IS A KEYWORD PARAMETER WHICH MAY BE USED TO   04823100
.*                SPECIFY A REGISTER TO BE USED TO SAVE REGISTER 2.     04824200
.*                REGISTER 2 WILL BE RESTORED AT THE END OF THE MACRO.  04825300
.*                REGISTERS 1, 2, 10, 11, 14, AND 15 SHOULD NOT BE USED 04826400
.*                FOR SAVREG. IF THEY ARE, THE RESULTS WILL BE          04827500
.*                UNPREDICTABLE.                                        04828600
.*                                                                      04829700
.*         FOR BRANCH=YES:                                              04830800
.*                REGISTERS 1, 2, 10, 11, 14, 15, AND &SAVREG MUST NOT  04831900
.*                BE USED FOR CBAD, TCBADDR, OR KEYADDR.                04833000
.*                REGISTERS 10, 11, AND 14 WILL BE UNPREDICTABLY        04834100
.*                ALTERED.                                              04835200
.*                REGISTER 2 WILL BE UNPREDICTABLY ALTERED IF SAVREG    04836300
.*                IS NOT USED.                                          04837400
.*                REGISTER 1 WILL CONTAIN THE ADDRESS OF THE DEB.       04838500
.*                REGISTER 15 WILL CONTAIN 0 IF THE DEB IS VALID,       04839600
.*                4 IF THE DEB IS NOT VALID, OR 16 IF THE DEB DOES NOT  04840700
.*                POINT TO THE DCB.                                     04841800
.*                A PROGRAM CHECK MAY OCCUR IF THE WRONG USER KEY       04842900
.*                IS PROVIDED.                                          04844000
.*                                                                      04845100
.*      OUTPUT = INTERFACE TO SVC 117                                   04850000
.*                                                                      04900000
.* EXIT-NORMAL = MEXIT OR MEND STATEMENT                                04950000
.*                                                                      05000000
.* EXIT-ERROR = ERROR MESSAGES:                                         05050000
.*                                                                      05100000
.*      MNOTE 12,***  IHB002 INVALID MF OPERAND SPECIFIED-&MF           05150000
.*      MNOTE 12,***  IHB002 INVALID AM OPERAND SPECIFIED-&AM           05200000
.*      MNOTE 12,***  IHB002 INVALID TYPE OPERAND SPECIFIED-&TYPE       05250000
.*      MNOTE 12,***  IHB002 INVALID BRANCH OPERAND SPECIFIED-&BRANCH   05262400
.*      MNOTE 12,***  IHB001 TCBADDR OPERAND REQUIRED, NOT SPECIFIED.   05274800
.*      MNOTE 12,***  IHB001 KEYADDR OPERAND REQUIRED, NOT SPECIFIED.   05287200
.*                                                                      05300000
.* EXTERNAL REFERENCES = NONE                                           05350000
.*                                                                      05400000
.*      ROUTINES = NONE                                                 05450000
.*                                                                      05500000
.*      DATA AREAS = NONE                                               05550000
.*                                                                      05600000
.*      CONTROL BLOCKS = NONE                                           05650000
.*                                                                      05700000
.* TABLES = NONE                                                        05750000
.*                                                                      05800000
.* MACROS = IHBERMAC                                                    05850000
.*          IHBINNRA                                                    05900000
.*                                                                      05950000
.* CHANGE ACTIVITY = SEE DELETIONS/CHANGES PRECEDING THE MACRO PROLOGUE 06000000
.*                                                                      06050000
.********************************************************************** 06100000
.*                                                                      06150000
.*                       *****************                              06200000
.*                       *   VARIABLES   *                              06250000
.*                       *  DECLARATION  *                              06300000
.*                       *****************                              06350000
.*                                                                      06400000
         LCLB  &AM0,&AM1,&AM2,&AM3,&AM4,&AM5,&AM6,&AM7                  06450000
         LCLB  &TYPEA,&TYPED,&TYPEV,&TYPEP,&ERR                         06500000
         LCLB  &BRCH                                           @ZA44985 06550000
         LCLC  &REG,&LABEL,&AMFC,&AMSC                                  06566600
         LCLC  &CBSUB,&TCBSUB,&SVEREG                          @ZA44985 06583200
         LCLA  &A                                                       06600000
.*                                                                      06650000
.*                       **********                                     06700000
.*                       * VERIFY *                                     06750000
.*                       *  INPUT *                                     06800000
.*                       **********                                     06850000
.*                                                                      06900000
         AIF   ('&MF' EQ 'O').DBCK020   BRANCH IF &MF OMITTED           06950000
         AIF   ('&MF' EQ 'L').DBCK030   BRANCH IF &MF=L                 07000000
         IHBERMAC 1001,MF,&MF                                           07050000
&ERR     SETB  1                                                        07100000
.*                                                                      07150000
.*                       TEST &CBAD                                     07200000
.*                                                                      07250000
.DBCK020 AIF   (T'&CBAD NE 'O').DBCK030 BRANCH IF &CBAD SPECIFIED       07300000
&ERR     SETB  1                        SET ERROR INDICATOR             07310000
         IHBERMAC  2                                                    07320000
.*                                                                      07330000
.*                       ESTABLISH AND TEST &BRANCH VALUE               07340000
.*                                                                      07350000
.DBCK030 ANOP                                                  @ZA44985 07360000
         AIF   (T'&BRANCH EQ 'O').DBCK050  IF &BRANCH NOT SPEC.@ZA44985 07370000
         AIF   ('&BRANCH' EQ 'NO').DBCK050   OR &BRANCH=NO     @ZA44985 07380000
         AIF   ('&BRANCH' EQ 'YES').DBCK035  IF &BRANCH=YES    @ZA44985 07390000
&ERR     SETB  1           SET ERROR INDICATOR                 @ZA44985 07400000
         IHBERMAC 1001,BRANCH,&BRANCH                          @ZA44985 07410000
         AGO   .DBCK040                                        @ZA44985 07420000
.DBCK035 ANOP                                                  @ZA44985 07430000
&BRCH    SETB  1                                               @ZA44985 07440000
.*                                                                      07450000
.*                       ESTABLISH AND TEST &TCBADDR VALUE              07460000
.*                                                                      07470000
.DBCK040 ANOP                                                  @ZA44985 07480000
         AIF   (T'&TCBADDR NE 'O').DBCK045  &TCBADDR SPECIFIED @ZA44985 07490000
&ERR     SETB  1         SET ERROR INDICATOR                   @ZA44985 07500000
         IHBERMAC 1006,TCBADDR                                 @ZA44985 07510000
.*                                                                      07520000
.*                       ESTABLISH AND TEST &KEYADDR VALUE              07530000
.*                                                                      07540000
.DBCK045 ANOP                                                  @ZA44985 07550000
         AIF   (T'&KEYADDR NE 'O').DBCK125  &KEYADDR SPECIFIED    @F01C 07560000
&ERR     SETB  1                                               @ZA44985 07570000
         IHBERMAC 1006,KEYADDR                                 @ZA44985 07580000
         AGO   .DBCK125                                        @ZA44985 07590000
.*                                                                      07600000
.*                       ESTABLISH AND TEST &AM VALUE                   07610000
.*                                                                      07620000
.DBCK050 ANOP                                                  @ZA44985 07630000
         AIF   (T'&AM NE 'O').DBCK060   BRANCH IF &AM SPECIFIED         07640000
         AIF   ('&MF' NE 'L').DBCK120   BRANCH IF NOT LIST FORM         07650000
         IHBERMAC 1006,AM                                               07700000
&ERR     SETB  1                                                        07750000
         AGO   .DBCK140                                                 07800000
.DBCK060 ANOP                                                           07850000
&AMFC    SETC  '&AM'(1,1)               FIRST CHARACTER OF &AM          07900000
         AIF   ('&AMFC' NE '(').DBCK080 BRANCH IF &AM TO BE CALCULATED  07950000
         AIF   ('&MF' EQ 'L').DBCK100   BRANCH IF LIST FORM             08000000
         AGO   .DBCK120                 &AM IS VALID                    08050000
.DBCK080 ANOP                                                           08100000
&AM0     SETB  ('&AM' EQ 'ISAM' OR '&AM' EQ 'SUBSYS' OR                X08150000
               '&AM' EQ 'TCAMAP')                               Y30ASJC 08200000
&AM1     SETB  ('&AM' EQ 'BDAM')                                        08250000
&AM2     SETB  ('&AM' EQ 'SAM' OR '&AM' EQ 'BPAM')                      08300000
&AM3     SETB  ('&AM' EQ 'TAM')                                         08350000
&AM4     SETB  ('&AM' EQ 'GAM')                                         08400000
&AM5     SETB  ('&AM' EQ 'TCAM' OR '&AM' EQ 'TCAMAP')            YM2921 08450000
&AM6     SETB  ('&AM' EQ 'EXCP')                                Y30ASJC 08500000
&AM7     SETB  ('&AM' EQ 'VSAM' OR '&AM' EQ 'SUBSYS')                   08550000
         AIF   (&AM0 OR &AM1 OR &AM2 OR &AM3 OR &AM4 OR &AM5 OR &AM6   X08600000
               OR &AM7).DBCK120 BRANCH IF &AM VALID                     08650000
.DBCK100 ANOP                                                           08700000
&ERR     SETB  1                        SET ERROR INDICATOR             08750000
         IHBERMAC 1001,AM,&AM                                           08800000
.*                                                                      08850000
.*                       ESTABLISH AND TEST &TYPE VALUE                 08900000
.*                                                                      08950000
.DBCK120 AIF   ('&MF' EQ 'L').DBCK140   BRANCH IF LIST FORM             09000000
&TYPEA   SETB  ('&TYPE' EQ 'ADD')                                       09050000
&TYPED   SETB  ('&TYPE' EQ 'DELETE')                                    09100000
&TYPEP   SETB  ('&TYPE' EQ 'PURGE')                                     09150000
.DBCK125 ANOP                                                  @ZA44985 09174900
.*                                      VERIFY IS DEFAULT TYPE          09200000
&TYPEV   SETB  ('&TYPE' EQ 'VERIFY' OR T'&TYPE EQ 'O')                  09250000
.*                                      BRANCH IF NO ERROR              09300000
         AIF   (&TYPEA OR &TYPED OR &TYPEV OR &TYPEP).DBCK140           09350000
         IHBERMAC 1001,TYPE,&TYPE                                       09400000
         AGO   .DBCK160                 EXIT BECAUSE OF ERROR           09450000
.DBCK140 AIF   (NOT &ERR).DBCK220       BRANCH IF NO SYNTAX ERRORS      09500000
.*                                      GENERATE NAME IF NO CODE GENNED 09550000
.*                                                                      09600000
.*                       ERROR EXIT                                     09650000
.*                                                                      09700000
.DBCK160 AIF   ('&NAME' EQ '').DBCK200  DON'T GENERATE NAME IF NULL     09750000
         AIF   ('&MF' NE 'L').DBCK180   BRANCH IF NOT LIST FORM         09800000
&NAME    DS    0C                                                       09850000
         MEXIT                                                          09900000
.DBCK180 ANOP                                                           09950000
&NAME    DS    0H                                                       10000000
.DBCK200 MEXIT                                                          10050000
.*                                                                      10100000
.*                       ************                                   10150000
.*                       * GENERATE *                                   10200000
.*                       *   CODE   *                                   10250000
.*                       ************                                   10300000
.*                                                                      10350000
.DBCK220 ANOP                                                           10400000
&LABEL   SETC  '&NAME'                  SET LABEL FOR FIRST GENERATED   10450000
.*                                      LINE OF CODE                    10500000
         AIF   (&BRCH).DBCK500          GO TO BRANCH ENTRY CODE@ZA44985 10524900
         AIF   ('&MF' EQ 'L').DBCK340   BRANCH IF LIST FORM             10550000
.*                                                                      10600000
.*                       FUNCTION TYPE VALUE                            10650000
.*                                                                      10700000
.*                         VERIFY       0                               10750000
.*                         ADD          1                               10800000
.*                         DELETE       2                               10850000
.*                         PURGE        3                               10900000
.*                                                                      10950000
         AIF   (&TYPEV).DBCK240         BRANCH IF VERIFY                11000000
&A       SETA  &TYPEA*1+&TYPED*2+&TYPEP*3 SET AM TYPE                   11050000
&LABEL   LA    0,&A.(,0)                LOAD TYPE VALUE                 11100000
&LABEL   SETC  ''                       LABEL NOT TO BE GENERATED AGAIN 11150000
.DBCK240 AIF   (T'&AM NE 'O').DBCK260   BRANCH IF &AM SPECIFIED         11200000
         AIF   (NOT &TYPEV).DBCK420     BRANCH IF ADD OR DELETE TYPE    11250000
&LABEL   SR    0,0                      LOAD TYPE AND AM VALUE          11300000
         AGO   .DBCK420                                                 11350000
.*                                                                      11400000
.*                       ACCESS METHOD TYPE VALUE                       11450000
.*                                                                      11500000
.*                          TCAMAP      84                              11550000
.*                          SUBSYS      81                              11650000
.*                          ISAM        80                              11700000
.*                          BDAM        40                              11750000
.*                          SAM/BPAM    20                              11800000
.*                          TAM         10                              11850000
.*                          GAM         08                              11900000
.*                          TCAM        04                              11950000
.*                          EXCP        02                              12000000
.*                          VSAM        01                              12050000
.*                          OMITTED     00                              12100000
.*                                                                      12150000
.DBCK260 ANOP                                                           12200000
&REG     SETC  '0'                      INITIALIZE TO REG 0             12250000
         AIF   (&TYPEV).DBCK280         BRANCH IF TYPE IS VERIFY        12300000
&REG     SETC  '15'                     USE REG 15 IF ADD OR DELETE     12350000
.DBCK280 AIF   ('&AMFC' NE '(').DBCK340 BRANCH IF &AM TO BE CALCULATED  12400000
&AMSC    SETC  '&AM'(2,1)               SECOND CHARACTER OF &AM         12450000
         AIF   ('&AMSC' EQ '(').DBCK320 BRANCH IF &AM A REGISTER        12500000
.*                                                                      12550000
.*                       &AM VALUE TO BE INSERTED FROM AN ADDRESS       12600000
.*                                                                      12650000
         AIF   (NOT &TYPEV).DBCK300     BRANCH IF NOT VERIFY            12700000
&LABEL   SR    0,0                      LOAD TYPE VALUE                 12750000
&LABEL   SETC  ''                       LABEL NOT TO BE GENERATED AGAIN 12800000
.DBCK300 ANOP                                                           12850000
&AMFC    SETC  '&AM(1)'                 ADDRESS OF AM VALUE             12900000
&LABEL   ICM   0,8,&AMFC                INSERT AM VALUE IN HI BYTE      12950000
         AGO   .DBCK420                                                 13000000
.*                                                                      13050000
.*                       &AM VALUE IN A REGISTER                        13100000
.*                                                                      13150000
.DBCK320 ANOP                                                           13200000
&A       SETA  K'&AM-4                  LENGTH OF REGISTER              13250000
&AMFC    SETC  '&AM'(3,&A)              REGISTER CONTAINING AM VALUE    13300000
&LABEL   LR    &REG,&AMFC               LOAD AM VALUE                   13350000