         MACRO                                                          00050002
&NAME    DELCPOOL &CPID=,&BRANCH=YES,&EXTENT=,&FREE=YES,&RELATED=       00100002
*        OS/VS2 RELEASE 2    --      9/15/73                            00120002
         LCLB  &FS,&PL,&AL,&LS     OPTION BITS                          00150002
         AIF   ('&BRANCH' NE 'YES').ERR1  BRANCH=YES MANDATORY          00200002
         AIF   ('&CPID' EQ '').ERR3       CPID PARAMETER REQUIRED       00250002
         AIF   ('&CPID'(1,1) NE '(').ERR2 CPID MUST BE REGISTER         00300002
.*       SYNTAX OK, CONTINUE WITH EXPANSION.                            00350002
         AIF   ('&FREE' EQ 'YES' OR '&FREE' EQ 'NO').FROK               00400002
         IHBERMAC  1015,&FREE,''FREE='',YES                             00450002
.FROK    ANOP                                                           00500002
&FS      SETB  ('&FREE' EQ 'NO')                                        00550002
&PL      SETB  ('&EXTENT' EQ '')                                        00600002
         AIF   (&PL).COMM                                               00610002
&LS      SETB  ('&EXTENT' EQ 'LAST')                                    00650002
&AL      SETB  ('&EXTENT' EQ 'ALL')                                     00700002
         AIF   (1 NE &AL+&LS).ERR6                                      00750002
.COMM    ANOP                                                           01150002
&NAME    STM   2,12,28(13)         SAVE CALLERS REGISTERS 2-12          01200002
         AIF   ('&CPID(1)' EQ '0').NZLD                                 01250002
         LR    0,&CPID(1)          LOAD R0 WITH CPID                    01300002
.NZLD    LA    1,B'0000&PL&AL&LS&FS'(0,0)  SET DELCPOOL OPTIONS YM02296 01350002
         L     3,16(0,0)           CVT ADDRESS FOR DELCPOOL     YM02296 01400002
         L     15,CVTDELCP-CVTMAP(0,3) LOAD DELCPOOL ENTRY ADDR         01450002
         BALR  14,15               GO TO DELCPOOL SERVICE               01500002
         LM    2,12,28(13)         RESTORE CALLERS REGISTERS            01550002
         MEXIT                                                          01600002
.ERR1    IHBERMAC  1006,''BRANCH=YES''                                  01650002
         MEXIT                                                          01700002
.ERR2    IHBERMAC  1001,CPID,&CPID                                      01750002
         MEXIT                                                          01800002
.ERR6    IHBERMAC  1001,EXTENT,&EXTENT                                  01850002
         MEXIT                                                          01900002
.ERR3    IHBERMAC  1006,CPID                                            01950002
         MEND                                                           02100002
