*%/*                                                                    00060002
         MACRO                                                          00070002
&NAME    DEQ   &PARAM,&RMC=,&RET=,&UCB=,&TCB=,&GENERIC=NO,&MF=I, X02113X00100002
               &RELATED=                                                00110002
         GBLB  &IHBDEQ                                             SDS1 00150002
.*0460 000000-999999                                               SDS1 00200002
&IHBDEQ  SETB  1                                                   SDS1 00250002
         AIF   ('&TCB' NE '').DEQTCB                             X02113 00300002
         AIF   ('&GENERIC' NE 'NO' AND '&RMC' NE '').ERR02       X02113 00350002
         AIF   ('&RMC' EQ '' AND '&RET' EQ '' AND '&UCB' EQ '').DEQ010  00400002
         AIF   ('&RMC' EQ '' AND '&RET' EQ '').DEQ020              SDS1 00450002
         AIF   ('&RMC' EQ '' AND '&UCB' EQ '').DEQ030              SDS1 00500002
         AIF   ('&RET' EQ '' AND '&UCB' EQ '').DEQ040              SDS1 00550002
         AIF   ('&RMC' EQ '').DEQ050                               SDS1 00600002
         AIF   ('&RET' EQ '').DEQ060                               SDS1 00650002
         AIF   ('&UCB' EQ '').DEQ070                               SDS1 00700002
&NAME    ENQ   &PARAM,SMC=&RMC,RET=&RET,UCB=&UCB,MF=&MF                 00750002
         AGO   .DEQ080                                             SDS1 00800002
.DEQ010  ANOP                                                      SDS1 00850002
&NAME    ENQ   &PARAM,GENERIC=&GENERIC,MF=&MF                    X02113 00900002
         AGO   .DEQ080                                             SDS1 00950002
.DEQ020  ANOP                                                      SDS1 01000002
&NAME    ENQ   &PARAM,UCB=&UCB,GENERIC=&GENERIC,MF=&MF           X02113 01050002
         AGO   .DEQ080                                             SDS1 01100002
.DEQ030  ANOP                                                      SDS1 01150002
&NAME    ENQ   &PARAM,RET=&RET,GENERIC=&GENERIC,MF=&MF           X02113 01200002
         AGO   .DEQ080                                             SDS1 01250002
.DEQ040  ANOP                                                      SDS1 01300002
&NAME    ENQ   &PARAM,SMC=&RMC,MF=&MF                                   01350002
         AGO   .DEQ080                                             SDS1 01400002
.DEQ050  ANOP                                                      SDS1 01450002
&NAME    ENQ   &PARAM,RET=&RET,UCB=&UCB,MF=&MF,GENERIC=&GENERIC         01500002
         AGO   .DEQ080                                             SDS1 01550002
.DEQ060  ANOP                                                      SDS1 01600002
&NAME    ENQ   &PARAM,SMC=&RMC,UCB=&UCB,MF=&MF                          01650002
         AGO   .DEQ080                                             SDS1 01700002
.DEQ070  ANOP                                                      SDS1 01750002
&NAME    ENQ   &PARAM,SMC=&RMC,RET=&RET,MF=&MF                          01800002
         AGO   .DEQ080                                           X02113 01850002
.DEQTCB  ANOP                                                    X02113 01900002
         AIF   ('&RMC' NE '').ERR01    RMC WITH TCB INVALID      X02113 01950002
         AIF   ('&RET' EQ '' AND '&UCB' EQ '').DEQ100            X02113 02000002
         AIF   ('&RET' EQ '').DEQ110                             X02113 02050002
         AIF   ('&UCB' EQ '').DEQ120                             X02113 02100002
&NAME    ENQ   &PARAM,RET=&RET,UCB=&UCB,TCB=&TCB,GENERIC=&GENERIC,     X02150002
               MF=&MF                                            X02113 02200002
         AGO   .DEQ080                                           X02113 02250002
.DEQ100  ANOP                                                    X02113 02300002
&NAME    ENQ   &PARAM,TCB=&TCB,MF=&MF,GENERIC=&GENERIC           X02113 02350002
         AGO   .DEQ080                                           X02113 02400002
.DEQ110 ANOP                                                     X02113 02450002
&NAME    ENQ   &PARAM,UCB=&UCB,TCB=&TCB,MF=&MF,GENERIC=&GENERIC  X02113 02500002
         AGO   .DEQ080                                           X02113 02550002
.DEQ120  ANOP                                                    X02113 02600002
&NAME    ENQ   &PARAM,RET=&RET,TCB=&TCB,MF=&MF,GENERIC=&GENERIC  X02113 02650002
.DEQ080  AIF   (NOT(&IHBDEQ)).DEQ090                               SDS1 02700002
&IHBDEQ  SETB  0                                                   SDS1 02750002
         SVC   48                                                  SDS1 02800002
         AGO   .DEQ090                                           X02113 02850002
.ERR01   IHBERMAC 1020,RMC,TCB         RMC WITH TCB INVALID      X02113 02900002
         AGO   .DEQ090                                           X02113 02950002
.ERR02   IHBERMAC 1020,RMC,GENERIC     RMC WITH GENERIC INVALID  X02113 03000002
.DEQ090  MEND                                                           03050002
**/                                                                     03100002
* DEQ:                                                                  03150002
*/********************************************************************/ 03200002
*/* PL/S VERSION OF DEQ MACRO. DEQ WHEN ISSUED CAUSES RELEASING BY   */ 03250002
*/* MAJOR(QNAME)NAME AND THE DIRECTION OF A DEQUE ON BEHALF OF       */ 03300002
*/* ANOTHER TASK.                                                    */ 03350002
*/********************************************************************/ 03400002
*        MACRO                                                          03450002
*          KEYS(LS,                    /* # OF RESOURCES             */ 03500002
*               MF,                    /*LIST/EXECUTE KEY            */ 03550002
*               GENERIC,                                                03600002
*               RET,                                                    03650002
*               RMC,                                                    03700002
*               TCB,                   /* TCB ADDRESS                */ 03750002
*               UCB,                   /*POINTER TO ADDRESS OF UCB   */ 03800002
*               RELATED);                                               03850002
*        ANS('?'||MACLABEL||'DEQP '||MACLIST||MACKEYS||';');            03900002
*%END;                                                                  03950002
