         MACRO                                                          00020000
&NAME    DEVTYPE &DDLOC,&A,&DEVTAB,&RPS                                 00040020
         AIF   ('&DDLOC' EQ '').E1                                      00060000
         AIF   ('&A' EQ '').E2                                          00080000
&NAME    IHBINNRA &DDLOC,&A                                             00100000
         AIF   ('&DEVTAB' EQ '').SVC                                    00120000
         AIF   ('&DEVTAB' NE 'DEVTAB').E3                               00140000
         AIF   ('&RPS' EQ '').NORP      NO RPS REQUESTED                00148020
         AIF   ('&RPS' NE 'RPS').NORP   CORRECTLY                       00156020
         LCR   1,1                      COMPLEMENT               S20201 00164020
.NORP    LCR   0,0                                               S20201 00172020
.SVC     SVC   24                                                       00180000
         MEXIT                                                          00200000
.E1      IHBERMAC 2                                                     00220000
         MEXIT                                                          00240000
.E2      IHBERMAC 3                                                     00260000
         MEXIT                                                          00280000
.E3      IHBERMAC 38,,&DEVTAB                                           00300000
         MEND                                                           00320000
