         MACRO                                                          00050003
&NAME    DFR   &NATNHP=NO,                                             X00100003
               &FONT=,                                                 X00150003
               &BCHSER=,                                               X00200003
               &BCH=,                                                  X00250003
               &ERASE=NO,                                              X00300003
               &REJECT=,                                               X00350003
               &EDCHAR=,                                               X00400003
               &CHRSET=                                                 00450003
         GBLA  &IHBFNT                                                  00500003
         GBLB  &IHBDFC,&IHBNAT                                          00550003
         LCLA  &SERBCH,&A1,&B1,&C1,&CTR,&TEMP,&ERS,&CHST                00600003
         LCLB  &OMTD                                                    00650003
         LCLC  &RJT                                                     00700003
&IHBDFC  SETB  1                    INIT VALID DFR SWITCH               00750003
.* STATEMENTS .DD100 TO .DD150 CHECK SPECIFICATION OF FONT KEYWORD      00850003
.DD100   AIF   ('&FONT' NE '').DD110     FONT KEYWORD SPECIFIED         00900003
.DD105   MNOTE 12,'***  IHB393  INVALID OR OMITTED FONT OPERAND SPECIFIX00950003
               ED. NO FORMAT RECORD GENERATED'                          01000003
&IHBDFC  SETB  0                    INDICATE INVALID DFR                01050003
         AGO   .DD150               SKIP FONT CHECK                     01100003
.DD110   ANOP                                                           01150003
&IHBFNT  SETA  1                                                        01200003
         AIF   ('&FONT' EQ 'MRKA').DD150                                01250003
&IHBFNT  SETA  2                                                        01300003
         AIF   ('&FONT' EQ 'MRKB').DD150                                01350003
&IHBFNT  SETA  9                                                        01400003
         AIF   ('&FONT' EQ 'NUMA').DD150                                01450003
&IHBFNT  SETA  10                                                       01500003
         AIF   ('&FONT' EQ 'ANA1').DD150                                01550003
&IHBFNT  SETA  11                                                       01600003
         AIF   ('&FONT' EQ 'ANA2').DD150                                01650003
&IHBFNT  SETA  5                                                        01700003
         AIF   ('&FONT' EQ 'NUMB').DD150                                01750003
&IHBFNT  SETA  6                                                        01800003
         AIF   ('&FONT' EQ 'ANB1').DD150                                01850003
&IHBFNT  SETA  12                                                       01900003
         AIF   ('&FONT' EQ 'NHP1').DD150                                01950003
&IHBFNT  SETA  14                                                       02000003
         AIF   ('&FONT' EQ 'NHP2').DD150                                02050003
&IHBFNT  SETA  13                                                       02100003
         AIF   ('&FONT' NE 'GOTH').DD105                                02150003
.* STATEMENTS .DD150 TO .DD200 CHECK BCHSER AND BCH KEYWORDS            02200003
.DD150   AIF   ('&BCHSER' EQ '').DD180     BCHSER SPECIFIED             02250003
&TEMP    SETA  1                           INDICATE BCHSER SPECIFIED    02300003
         AIF   ('&BCHSER' GE '1' AND '&BCHSER' LE '3').DD175            02350003
         MNOTE 4,'***  IHB394  INVALID ''BCHSER'' OPERAND. ASSUME NO NUX02400003
               MBERING'                                                 02450003
         AGO   .DD180                      SKIP SETTING                 02500003
.DD175   ANOP                                                           02550003
&SERBCH  SETA  &BCHSER*16                  SETUP FOR DC GENERATION      02600003
.DD180   AIF   ('&BCH' EQ '').DD200        BCH SPECIFIED                02650003
         AIF   (&TEMP EQ 1).DD185   BCHSER SPECIFIED, YES BOTH SPCFD    02700003
         AIF   ('&BCH' GE '1' AND '&BCH' LE '3').DD190                  02750003
.DD185   MNOTE 4,'***  IHB395  INVALID ''BCH'' OPERAND, ASSUME NO NUMBEX02800003
               RING'                                                    02850003
&SERBCH  SETA  0                    SETUP FOR DC GENERATION             02900003
         AGO   .DD200               CONTINUE MAIN FLOW                  02950003
.DD190   ANOP                                                           03000003
&SERBCH  SETA  &BCH*16+64           SETUP FOR DC GENERATION             03050003
.DD200   AIF   (&IHBDFC EQ 0).DD210 VALID DFR, YES GEN DC FOR FR LENGTH 03100003
&NAME    DC    AL2(IHBEND-IHBBEG)  FORMAT RECORD LENGTH                 03150003
.* STATEMENTS .DD210 TO .DD260 CHECK REJECT KEYWORD                     03200003
.DD210   AIF   ('&REJECT' EQ '').DD250  REJECT SPECIFIED                03250003
         AIF   (K'&REJECT NE 1).DD220   REJECT EQ 1 CHAR                03300003
&RJT     SETC  '''&REJECT'''            YES,SETUP FOR DC GENERATION     03350003
         AGO   .DD235                   GO TO GEN REJECT DC             03400003
.DD220   AIF   (K'&REJECT EQ 2).DD240   REJECT EQ 2 CHARS               03450003
         AIF   (K'&REJECT EQ 4 AND ('&REJECT'(2,2) EQ '''''' OR        X03500003
               '&REJECT'(2,2) EQ '&&')).DD230  CHK SPECIAL CASES        03550003
         AIF   (K'&REJECT NE 3 OR '&REJECT'(1,1) NE '''' OR            X03600003
               '&REJECT'(3,1) NE '''').DD240   ENCLOSING QUOTES         03650003
.DD230   ANOP                                                           03700003
&RJT     SETC  '&REJECT'             SETUP FOR DC GENERATION            03750003
.DD235   AIF   (&IHBDFC EQ 0).DD260  VALID DFR, YES GEN DC              03800003
IHBBEG   DC    C&RJT REJECT CHARACTER CODE                              03850003
         AGO   .DD260                CONTINUE MAIN FLOW                 03900003
.DD240   MNOTE 4,'***  IHB396  REJECT CHARACTER INVALID. ''3F'' USED'   03950003
.DD250   AIF   (&IHBDFC EQ 0).DD260  VALID DFR, YES GEN DEFAULT REJECT  04000003
IHBBEG   DC    AL1(63) REJECT CHARACTER CODE                            04050003
.* STATEMENTS .DD260 THRU .DD270 CHECK ERASE KEYWORD                    04100003
.DD260   AIF   ('&ERASE' EQ '' OR '&ERASE' EQ 'NO').DD290 VALID ERASE   04150003
         AIF   ('&ERASE' NE 'YES').DD270    VALID ERASE                 04200003
&ERS     SETA  128                          SETUP FOR DC  GENERATION    04250003
         AGO   .DD290                       CONTINUE MAIN FLOW          04300003
.DD270   MNOTE 4,'***  IHB397  INVALID ERASE SPECIFIED. ''NO'' ASSUMED' 04350003
.* STATEMENTS .DD290 THRU .DD300 CHECK CHRSET KEYWORD                   04400003
.DD290   AIF   ('&CHRSET' EQ '').DD310   CHRSET SPECIFIED               04450003
         AIF   ('&CHRSET' LT '0' OR '&CHRSET' GT '5').DD300             04500003
&CHST    SETA  &CHRSET                SETUP FOR DC GENERATION           04550003
         AGO   .DD310                 CONTINUE MAIN FLOW                04600003
.DD300   MNOTE 4,'***  IHB398  INVALID CHRSET SPECIFIED. ''0'' ASSUMED' 04650003
.DD310   AIF   (&IHBDFC EQ 0).DD315   VALID DFR,YES GEN DC S            04700003
         DC    AL1(IHBFONT) FONT SELECT                                 04750003
         DC    AL1(&ERS+&SERBCH+&CHST) G/C ERASE, B/S NO., CHRSET       04800003
.* STATEMENTS .DD315 THRU .DD317 CHECK NATNHP KEYWORD                   04850003
.DD315   ANOP                                                           04900003
&IHBNAT  SETB  0                           INITIALIZE FOR DC GEN        04950003
         AIF   ('&NATNHP' EQ '' OR '&NATNHP' EQ 'NO').DD317             05000003
         AIF   ('&NATNHP' EQ 'YES').DD316  VALID NATNHP                 05050003
         MNOTE 4,'***  IHB399  INVALID NATNHP SPECIFIED. ''NO'' ASSUMEDX05100003
               '                                                        05150003
         AGO   .DD317                      CONTINUE MAIN FLOW           05200003
.DD316   ANOP                                                           05250003
&IHBNAT  SETB  1                 SETUP FOR DC GENERATION                05300003
.* STATEMENTS .DD317 THRU .DD400 CHECK EDCHAR KEYWORD                   05350003
.DD317   ANOP                                                           05400003
&A1      SETA  1                                                        05450003
&B1      SETA  N'&EDCHAR         FIND NUMBER OF EDCHAR OPERANDS         05500003
         AIF   (&B1 LE 6).DD320  MORE THAN 6 THEN ERROR                 05550003
         MNOTE 4,'***  IHB400  MORE THAN 6 EDCHAR''S SPECIFIED. FIRST 6X05600003
                USED'                                                   05650003
&B1      SETA  6                 DEFAULT TO 6 OPERANDS                  05700003
.DD320   AIF   ('&EDCHAR(&A1)' EQ '').DD370 SUBOPERAND SPECIFIED        05750003
         AIF   (&OMTD EQ 0).DD330  NEXT MNOTE GEND BEFORE               05800003
         MNOTE 4,'***  IHB401  INVALID EDCHAR SUBOPERAND. SUBOPERAND IGX05850003
               NORED'                                                   05900003
&OMTD    SETB  0                 INDICATE MESSAGE GENERATED             05950003
.DD330   AIF   (K'&EDCHAR(&A1) NE 1).DD340 SUBOPERAND EQ 1 CHAR         06000003
         AIF   (&IHBDFC EQ 0).DD350        IF VALID DFR THEN GEN DC     06050003
         DC    CL1'&EDCHAR(&A1)' EDIT CHARACTER                         06100003
         AGO   .DD350            GO CHECK NEXT EDCHAR                   06150003
.DD340   AIF   (K'&EDCHAR(&A1) EQ 2).DD360  EDCHAR EQ 2 CHARS           06200003
         AIF   (K'&EDCHAR(&A1) EQ 4 AND ('&EDCHAR(&A1)'(2,2) EQ '''''' X06250003
               OR '&EDCHAR(&A1)'(2,2) EQ '&&')).DD345 SPECIAL CASE CHK  06300003
         AIF   (K'&EDCHAR(&A1) NE 3 OR '&EDCHAR(&A1)'(1,1) NE '''' OR  X06350003
               '&EDCHAR(&A1)'(3,1) NE '''').DD360 ENCLOSING QUOTES      06400003
.DD345   AIF   (&IHBDFC EQ 0).DD350  IF VALID DFR THEN GEN DC           06450003
         DC    CL1&EDCHAR(&A1) EDIT CHARACTER                           06500003
.DD350   ANOP                                                           06550003
&C1      SETA  &C1+1                 INCREMENT CTR OF GEND EDCHARS      06600003
         AGO   .DD380                CONTINUE EDCHAR CHECK              06650003
.DD360   MNOTE 4,'***  IHB401  INVALID EDCHAR SUBOPERAND. SUBOPERAND IGX06700003
               NORED'                                                   06750003
         AGO   .DD380                CONTINUE EDCHAR CHECK              06800003
.DD370   ANOP                                                           06850003
&OMTD    SETB  1                     SET OMITTED INDICATOR              06900003
.DD380   ANOP                                                           06950003
&A1      SETA  &A1+1                  INCR NO OF EDCHARS CHECKED        07000003
         AIF   (&A1 LE &B1).DD320     ALL OPERANDS CHECKED              07050003
         AIF   (&IHBDFC EQ 0).DD400   IF NOT VALID DFR THEN EXIT        07100003
.DD390   AIF   (&C1 GE 6).DD400       IF 6 EDCHARS GEND THEN EXIT       07150003
&C1      SETA  &C1+1                  GEN REMAINING DC S TO TOTAL 6     07200003
         DC    AL1(0) UNUSED EDIT CHARACTER                             07250003
         AGO .DD390                                                     07300003
.DD400   ANOP                                                           07350003
         MEXIT                                                          07400003
         MEND                                                           07450003
