         MACRO                                                          00050002
&NAME    DISPGUID &SUPPRES=,&DISPMSG=                                   00100002
         GBLA  &IECNDGP(100)                                            00150002
.*             IECNDGP(1)     NUMBER OF BYTES COUNTER                   00200002
         GBLB  &IECSW(9),&IECSEQ(10),&IECSQ(7),&IECGDSW                 00250002
.*             IECSQ(5)   SEQUENCE INDICATOR                            00300002
.*             IECGDSW  ON INDICATES GDU=YES CODED IN CONFIGUR MACRO    00350002
         LCLA  &B                                                       00400002
         LCLB  &NOCODE,&A                                               00450002
.*             &A   ON INDICATES SUPPRES=YES IS CODED                   00500002
         ACTR  500                                                      00550002
         AIF   (&IECSEQ(1) AND &IECSEQ(2) AND &IECSQ(1) AND &IECSQ(2)  X00600002
               AND &IECSQ(3) AND &IECSQ(4) AND NOT &IECSQ(6)).SEQ       00650002
.SEQ1    ANOP                                                           00700002
&NOCODE  SETB  1                                                        00750002
         MNOTE 12,'MACRO SEQUENCE ERROR'                                00800002
         AGO   .NAME                                                    00850002
.SEQ     AIF   (&IECSEQ(4) OR &IECSEQ(5) OR &IECSEQ(10) OR &IECSEQ(6)).X00900002
               SEQ1                                                     00950002
.NAME    ANOP                                                           01000002
         AIF   ('&NAME' NE '').GDUYES                                   01050002
&NOCODE  SETB  1                                                        01100002
         MNOTE 12,'NAME FIELD REQUIRED'                                 01150002
.GDUYES  AIF   (&IECGDSW).LEN                                           01200002
&NOCODE  SETB  1                                                        01250002
         MNOTE 12,'DISPGUID MACRO NOT VALID UNLESS GDU=YES IN CONFIGUR X01300002
               MACRO'                                                   01350002
.LEN     ANOP                                                           01400002
         AIF   (T'&SUPPRES EQ 'O').DIS1                                 01450002
         AIF   ('&SUPPRES' EQ 'NO').DIS                                 01500002
         AIF   ('&SUPPRES' EQ  'YES').DIS1                              01550002
         MNOTE 3,'SUPPRES OPERAND INVALID,OPERAND IGNORED'              01600002
.DIS1    ANOP                                                           01650002
&A       SETB  1                                                        01700002
.DIS     ANOP                                                           01750002
         AIF   (T'&DISPMSG NE 'O').DIS2                                 01800002
&NOCODE  SETB  1                                                        01850002
         MNOTE 12,'DISPMSG OPERAND CAN NOT BE OMITTED'                  01900002
         AGO   .CKGEN                                                   01950002
.DIS2    ANOP                                                           02000002
         AIF   ('&DISPMSG'(1,1) EQ '''' AND '&DISPMSG'(K'&DISPMSG,1)   X02050002
               EQ '''').DIS3                                            02100002
&NOCODE  SETB  1                                                        02150002
         MNOTE 12,'DISPMSG OPERAND IN INCORRECT FORMAT'                 02200002
         AGO   .CKGEN                                                   02250002
.DIS3    ANOP                                                           02300002
         AIF   (K'&DISPMSG GE 3).DIS4                                   02350002
&NOCODE  SETB  1                                                        02400002
         MNOTE 12,'DISPMSG OPERAND OF DISPGUID MACRO IS INVALID'        02450002
.DIS4    ANOP                                                           02500002
         AIF   (K'&DISPMSG LE 18).DIS5                                  02550002
&NOCODE  SETB  1                                                        02600002
         MNOTE 12,'MORE THAN 16 TEXT CHARACTERS SPECIFIED'              02650002
.DIS5    ANOP                                                           02700002
.CKGEN   ANOP                                                           02750002
         AIF   (NOT &NOCODE).GENCODE                                    02800002
         MNOTE 12,'TEXT GENERATION SUPPRESSED'                          02850002
         AGO   .MEND                                                    02900002
.GENCODE ANOP                                                           02950002
&NAME    EQU   *                                                        03000002
&B       SETA  K'&DISPMSG-2                                             03050002
         DC    YL1(X'80'*&A+&B)                                         03100002
         DC    C&DISPMSG                                                03150002
&B       SETA  &B+1                                                     03200002
&IECNDGP(1) SETA &IECNDGP(1)+&B                                         03250002
.MEND    MEND                                                           03300002
