*%/*                                                                    03050002
         MACRO                                                          03100002
&NAME    DELETE &EP=,&EPLOC=,&DE=,&RELATED=                             06000002
         AIF   ('&EP' NE '').EPPRES                                     09000000
         AIF   ('&EPLOC' EQ '' AND '&DE' EQ '').E1 BOTH MISSING         12000000
         AIF   ('&EPLOC' NE '' AND '&DE' NE '').E2 BOTH PRESENT         15000000
&NAME    IHBINNRA ,&EPLOC&DE                LOAD REG 0                  18000000
         AGO   .SVC                                                     21000000
.EPPRES  AIF   ('&EPLOC' NE '' OR '&DE' NE '').E2                       24000000
&NAME    BAL   0,*+12                            LOAD ADDR OF EP SYMBOL 27000000
         DC    CL8'&EP'                          EP SYMBOL              30000000
.SVC     SVC   9                                 ISSUE DELETE SVC       33000000
         MEXIT                                                          36000000
.E1      IHBERMAC 01,318                    PARAM MISSING               39000000
         MEXIT                                                          42000000
.E2      IHBERMAC 88,318                    TWO MANY PARAMS             45000000
         MEND                                                           48000000
**/                                                                     48050002
*DELETE: MACRO                                                          48100002
*        KEYS(EP,DE,RTCD,RELATED);                                      48150002
*        ANS('?'||MACLABEL||'DELETEP '||MACLIST||MACKEYS||';');         48200002
*%END;                                                                  48250002
