         MACRO                                                          00050000
&NAME    DLVRP &TYPE=,&MF=I                                             00100000
         LCLA  &ORCODE                  CODES TO BE TURNED ON IN LIST   00150000
         LCLA  &ANDCODE                 CODES TO BE TURNED OFF IN LIST  00200000
         LCLA  &I                       WORK VARIABLE                   00250000
         LCLB  &MFE                     EXECUTE FORM INDICATOR          00300000
         LCLB  &ERR                     ERROR INDICATOR                 00350000
         LCLC  &EREG                    EXECUTE FORM LIST ADDR REG      00400000
&ORCODE  SETA  128+32                   INDICATE DB/DC AND DLVRP        00450000
&ANDCODE SETA  255-64                   RESET BLDVRP                    00500000
         AIF   (N'&SYSLIST EQ 0).NOPOS  GO IF NO POSITIONAL OPERANDS    00550000
.POSLOOP ANOP                                                           00560000
&I       SETA  &I+1                     POINT TO NEXT POS OPERAND       00570000
         IDAERMAC 1,&SYSLIST(&I)        ISSUE WARNING MNOTE             00600000
         AIF   (&I LT N'&SYSLIST).POSLOOP  GO IF MORE POS OPERANDS      00610000
.NOPOS   ANOP                                                           00650000
         AIF   ('&MF' EQ 'I').MFB       GO IF STANDARD FORM             00700000
         AIF   (N'&MF LT 2).MFERR       GO IF NOT ENOUGH PARMS          00750000
         AIF   ('&MF(1)' NE 'E').MFERR  GO IF NOT EXECUTE FORM          00800000
&MFE     SETB  1                        INDICATE EXECUTE FORM           00850000
         AGO   .MFB                     GO AROUND ERROR                 00900000
.MFERR   ANOP                                                           00950000
         IDAERMAC 3,MF,&MF              ISSUE ERROR MNOTE               01000000
&ERR     SETB  1                        INDICATE ERROR                  01050000
.MFB     ANOP                                                           01100000
         AIF   ('&TYPE' NE '').TOKY     GO IF TYPE IS SPECIFIED         01150000
         AIF   (&MFE).TYPEB             GO IF EXECUTE FORM              01200000
         AGO   .TLSR                    GO TAKE DEFAULT                 01250000
.TOKY    ANOP                                                           01300000
         AIF   ('&TYPE' NE 'LSR').TLSRB  GO IF NOT LOCALLY SHARED       01350000
.TLSR    ANOP                                                           01400000
&ORCODE  SETA  &ORCODE+16               INDICATE LOCALLY SHARED         01450000
&ANDCODE SETA  &ANDCODE-8               RESET GLOBALLY SHARED           01500000
         AGO   .TYPEB                   GO AROUND TYPE ANALYSIS         01550000
.TLSRB   ANOP                                                           01600000
         AIF   ('&TYPE' NE 'GSR').TGSRB  GO IF NOT GLOBALLY SHARED      01650000
&ORCODE  SETA  &ORCODE+8                INDICATE GLOBALLY SHARED        01700000
&ANDCODE SETA  &ANDCODE-16              RESET LOCALLY SHARED            01750000
         AGO   .TYPEB                   GO AROUND TYPE ANALYSIS         01800000
.TGSRB   ANOP                                                           01850000
         IDAERMAC 3,TYPE,&TYPE          ISSUE ERROR MNOTE               01900000
&ERR     SETB  1                        INDICATE ERROR                  01950000
.TYPEB   ANOP                                                           02000000
         AIF   (&ERR).END               GO IF ANY ERRORS                02050000
         AIF   ('&NAME' EQ '').NAMEB    GO IF NO NAME                   02060000
&NAME    DS    0H                                                       02100000
.NAMEB   ANOP                                                           02110000
         AIF   (&MFE).EXEC              GO IF EXECUTE FORM              02150000
         CNOP  0,4                      ALIGN ON A WORD BOUNDARY        02200000
         BAL   1,*+60                   PLACE LIST ADDRESS IN 1         02250000
         DC    X'80'                    INDICATE END OF OPEN LIST       02260000
         DC    AL3(*+3)                 ACB ADDRESS                     02270000
         DC    X'A011'                  ID AND SUBTYPE                  02300000
         DC    AL2(0)                   RESERVED                        02350000
         DC    A(0)                     BUFFER LIST ADDRESS             02400000
         DC    AL1(0)                   KEY LENGTH                      02450000
         DC    AL1(0)                   STRING NUMBER                   02500000
         DC    AL1(&ORCODE)             VRP CODES                       02550000
         DC    AL1(0)                   RESERVED                        02600000
         DC    3A(0)                    RESERVED                        02650000
         DC    XL3'0'                   RESERVED                        02700000
         DC    X'08'                    DSORG                           02750000
         DC    5A(0)                    RESERVED                        02800000
         DC    X'02'                    OFLAGS                          02850000
         DC    XL3'0'                   RESERVED                        02900000
         AGO   .ISUSVC                  GO TO ISSUE OPEN SVC            02950000
.EXEC    ANOP                                                           03000000
         AIF   ('&MF(2)'(1,1) EQ '(').EREG  GO IF LIST ADDRESS IN REG   03050000
         LA    1,&MF(2)                 LOAD LIST ADDRESS               03100000
         AGO   .AEREG                   GO AROUND REG CODE              03150000
.EREG    ANOP                                                           03200000
         AIF   ('&MF(2)' EQ '(1)').AEREG  GO IF LIST ADDR ALREADY IN 1  03250000
&I       SETA  K'&MF(2)-2               CALC LENGTH OF REG NAME         03300000
&EREG    SETC  '&MF(2)'(2,&I)           PICK UP REG NAME                03350000
         LR    1,&EREG                  LOAD LIST ADDRESS               03400000
.AEREG   ANOP                                                           03450000
         NI    14(1),&ANDCODE           REMOVE OLD VRP CODES            03500000
         OI    14(1),&ORCODE            INSERT NEW VRP CODES            03550000
.ISUSVC  ANOP                                                           03600000
         SVC   19                       ISSUE OPEN SVC                  03650000
.END     ANOP                                                           03700000
         MEND                                                           03750000
