         MACRO                                                          00100002
&NAME    DSGNL &FUNCTON,&CPU=                                           00150002
         GBLC  &MESSAGE                                                 00200002
         AIF   ('&NAME' EQ '').CONT                                     00250002
&NAME    DS    0H                                                       00300002
.CONT    AIF   ('&FUNCTON' NE '').SENSE                                 00350002
         IHBERMAC 24                                                    00400002
         MEXIT                                                          00450002
.SENSE   AIF   ('&FUNCTON' NE 'SENSE').START                            00500002
         LA    0,1(0,0)                 SENSE FUNCTION CODE             00550002
         AGO   .TESTADR                                                 00600002
.START   AIF   ('&FUNCTON' NE 'START').STOP                             00650002
         LA    0,4(0,0)                 START FUNCTION CODE             00700002
         AGO   .TESTADR                                                 00750002
.STOP    AIF   ('&FUNCTON' NE 'STOP').RESTART                           00800002
         LA    0,5(0,0)                 STOP FUNCTION CODE              00850002
         AGO   .TESTADR                                                 00900002
.RESTART AIF   ('&FUNCTON' NE 'RESTART').IPR                            00950002
         LA    0,6(0,0)                 RESTART FUNCTION CODE           01000002
         AGO   .TESTADR                                                 01050002
.IPR     AIF   ('&FUNCTON' NE 'IPR').PR                                 01100002
         LA    0,7(0,0)                 INITIAL PGM RESET FUNCTION CODE 01150002
         AGO   .TESTADR                                                 01200002
.PR      AIF   ('&FUNCTON' NE 'PR').SSS                                 01250002
         LA    0,8(0,0)                 PROGRAM RESET FUNCTION CODE     01300002
         AGO   .TESTADR                                                 01350002
.SSS     AIF   ('&FUNCTON' NE 'SSS').IMPL                               01400002
         LA    0,9(0,0)                 STOP & STORE STATUS FUNCTN CODE 01450002
         AGO   .TESTADR                                                 01500002
.IMPL    AIF   ('&FUNCTON' NE 'IMPL').ICPUR                             01550002
         LA    0,10(0,0)                IMPL FUNCTION CODE              01600002
         AGO   .TESTADR                                                 01650002
.ICPUR   AIF   ('&FUNCTON' NE 'ICPUR').CPUR                             01700002
         LA    0,11(0,0)                ICPUR FUNCTION CODE             01750002
         AGO   .TESTADR                                                 01800002
.CPUR    AIF   ('&FUNCTON' NE 'CPUR').REG                               01850002
         LA    0,12(0,0)                CPUR FUNCTION CODE              01900002
         AGO   .TESTADR                                                 01950002
.REG     AIF   ('&FUNCTON' EQ '(0)').TESTADR FUNCTION CODE PRELOADED    02000002
         IHBERMAC 1020,FUNCTION,&FUNCTON                                02050002
         MEXIT                                                          02100002
.TESTADR AIF   ('&CPU' EQ '(1)').MNLCDE                                 02150002
         AIF   ('&CPU' NE '').ADRCDE                                    02200002
         IHBERMAC 1006,CPU                                              02250002
         MEXIT                                                          02300002
.ERREG1  ANOP                                                           02350002
.*       IHB280 REGISTER NOTATION INVALID WITH CPU                      02400002
&MESSAGE SETC  'REGISTER NOTATION'                                      02450002
         IHBERMAC 1020,&MESSAGE,CPU                                     02500002
         MEXIT                                                          02550002
.ADRCDE  ANOP                                                           02600002
         AIF   ('&CPU'(1,1) EQ '(').ERREG1                              02650002
         LA    1,&CPU                   PHYSICAL CCA ADDRESS            02700002
.MNLCDE  ANOP                                                           02750002
         L     14,CVTPTR(0,0)           LOCATE CVT ADDRESS              02800002
         L     15,CVTIPCDS-CVT(0,14)    IEAVEDR ENTRY POINT             02850002
         BALR  14,15                    ENTER IEAVEDR AND EST RETURN    02900002
         MEND                                                           03400002
