         MACRO                                                          00020000
&NAME    EOV   &PARA,&DUMMY=                                            00040017
         AIF   ('&PARA' EQ '').E1                                       00060000
&NAME    IHBINNRA &PARA                                                 00080000
         SVC   55                                ISSUE EOV SVC          00100000
         MEXIT                                                          00120000
.E1      IHBERMAC 06                                                    00140000
         MEND                                                           00160000
