         MACRO                                                          00800020
&NAME    ERRORMSG &MASK,&DEST=,&DATA=,&EXIT=,&CONNECT=OR,              X01600000
               &HEADER=YES,&TASK=                              @Y17XANQ 01680000
.* &TASKNME - TASK NAME                                        @Y17XAMN 01760000
.* &TASKNUM - NUMBER OF CHARACTERS IN TASK CHAR STRING         @Y17XAMN 01840000
.* &IEDQZA(32) - TOTE MH INDICATOR                             @Y17XAMN 01920000
         GBLA  &IEDQZD,&IEDQZE(64),&IEDQZK                              02400020
         GBLB  &IEDQZA(64)                                              03200020
         LCLA  &LEN,&BIT,&D,&ALG,&U,&TASKNUM                   @Y17XANQ 04000000
         LCLB  &NOGO                                                    04800020
         LCLC  &C,&TASKNME                                              05600000
.*C552000                                                       SA58454 06000022
.*A440000,480000                                                SA59170 06400022
.*C472000                                                       SA59170 06600022
.*A016000,040000,160000,256000,328000,392000,432000            @Y17XAMN 06650000
.*A432000,486000,544000,592000,664000,832000,912000            @Y17XAMN 06700000
.*C264000,352000,656000,840000,864000,920000                   @Y17XAMN 06750000
.*A256000,261110                                               @Y17XANQ 06760000
.*C016800,040000,164000,260800,261100,336000,376000,597000     @Y17XANQ 06770000
.*C840000,920000                                               @Y17XANQ 06780000
.*D068000,256300-257500,258100-260500,594000                   @Y17XANQ 06790000
.*C704000                                                      @OX19417 06790182
.* DUMMY APAR                                                  @OZ27328 06790282
.*C096000                                                      @OY19729 06790382
         SPACE                                                          07200020
&C       SETC  '&SYSECT'                                                08000020
&D       SETA  0                                                        08800020
         AIF   ('&HEADER' EQ 'NO').TSOCHK                      @OY19729 09600082
         AIF   (('&HEADER' EQ 'YES') AND (NOT &IEDQZA(9))).TSOCHK       09650082
         MNOTE 12,'***  IHB312  MUST FOLLOW STARTMH MACRO WITH TSOMH=NO*10400020
               '                                                        11200020
         AGO   .MEND                                                TSO 12000020
.TSOCHK  ANOP                                                       TSO 12800020
         AIF   (&IEDQZA(5)).CHECK                                       13600020
         MNOTE 12,'***  IHB070  SEQUENCE ERROR-MUST FOLLOW INMSG OR OUT*14400020
               MSG MACRO'                                               15200020
&NOGO    SETB  1                                                        16000020
.CHECK   AIF   ('&DATA' NE '').MASKCHK                         @Y17XANQ 16400000
         MNOTE 12,'***  IHB004  REQUIRED OPERAND(S) NOT SPECIFIED'      17600020
&NOGO    SETB  1                                                        18400020
.MASKCHK AIF   ('&MASK' EQ '').NXT                                      19200020
         IEDQMASK &MASK,5                                               20000020
         AIF   (&IEDQZA(24)).ERR                                        20800020
         AIF   ('&MASK'(1,1) NE 'X').NXT                                21600020
         AIF   ('&MASK'(2,1) EQ 'L' AND '&MASK'(3,1) NE '5').ERR        22400020
         AIF   ('&MASK'(2,1) NE 'L' AND K'&MASK NE 13).ERR              23200020
         AGO   .NXT                                                     24000020
.ERR     MNOTE 12,'***  IHB300  MASK OPERAND INVALID AS SPECIFIED'      24800020
&NOGO    SETB  1                                                        25600020
.NXT     AIF   ('&TASK' EQ '' OR '&DEST' EQ '').ERRNXT         @Y17XANQ 25607000
         MNOTE 4,'*** IED600 TASK AND DEST OPERANDS ARE MUTUALLY EXCLUS*25614000
               IVE, DEST OPERAND IGNORED'                      @Y17XANQ 25621000
.ERRNXT  AIF   ('&TASK' EQ '').ERRNT                           @Y17XAMN 25780000
         AIF   ('&TASK' NE 'TOTE').ERRNTOT                     @Y17XANQ 26080000
         AIF   (&IEDQZA(32)).TTOTE                             @Y17XANQ 26090000
         MNOTE 12,'*** IED601 TASK OPERAND DISALLOWED FOR USER MH '     26100000
&NOGO    SETB  1                                               @Y17XANQ 26110000
         AGO   .DATACHK                                        @Y17XANQ 26120000
.TTOTE   ANOP                                                  @Y17XANQ 26130000
&TASKNME SETC  'TOTE'                                          @Y17XAMN 26140000
&TASKNUM SETA  4                                               @Y17XAMN 26170000
         AGO   .DATACHK                                        @Y17XAMN 26200000
.ERRNTOT ANOP                                                  @Y17XAMN 26230000
         MNOTE 12,'*** IED602 INVALID TASK OPERAND'            @Y17XAMN 26260000
&NOGO    SETB  1                                               @Y17XAMN 26290000
         AGO   .DATACHK                                        @Y17XAMN 26320000
.ERRNT   AIF   ('&DEST' EQ '').DATACHK                         @Y17XAMN 26400000
         AIF   ('&DEST' EQ 'ORIGIN' OR '&DEST' EQ 'DESTIN').DATACHK     27200020
         IEDQCHAR 8,&DEST                                               28000020
&D       SETA  &IEDQZD                                                  28800020
         AIF   (&IEDQZA(24)).DESTERR                                    29600020
         AIF   (&IEDQZD LE 8).DATACHK                                   30400020
.DESTERR MNOTE 12,'***  IHB300  DESTINATION OPERAND INVALID AS SPECIFIE*31200020
               D'                                                       32000020
&NOGO    SETB  1                                                        32800020
.DATACHK AIF   ('&DATA'(K'&DATA,1) EQ ')').DATAERR             @Y17XANQ 33600000
         AIF   ('&DATA'(K'&DATA,1) NE '''' AND K'&DATA GT 8).DATAERR    34400020
         AIF   ('&DATA'(K'&DATA,1) NE '''').ERRHDR                      35200000
         IEDQCHAR 255,&DATA                                             36000020
         AIF   (&IEDQZA(24)).DATAERR                                    36800020
         AIF   (&IEDQZD LE 255).ERRHDR                         @Y17XANQ 37600000
.DATAERR MNOTE 12,'***  IHB300  DATA OPERAND INVALID AS SPECIFIED'      38400020
&NOGO    SETB  1                                                        39200020
.ERRHDR  ANOP                                                  @Y17XAMN 39560000
&BIT     SETA  &BIT+2                                          @Y17XAMN 39600000
         AIF   ('&HEADER' EQ 'YES').ERROP                      @Y17XAMN 39640000
         AIF   ('&HEADER' EQ 'NO').ERRHL                       @Y17XAMN 39680000
         MNOTE 4,'*** IED604 INVALED HEADER OPERAND,DEFAULT ASSUMED.'   39720000
         AGO   .ERROP                                          @Y17XAMN 39760000
.ERRHL   ANOP                                                  @Y17XAMN 39800000
&BIT     SETA  &BIT-2                                          @Y17XAMN 39840000
.ERROP   AIF   ('&EXIT' EQ '').RTNCHK1                                  40000000
         AIF   (K'&EXIT LE 8).RTNCHK                                    41600020
         MNOTE 12,'***  IHB300  EXIT OPERAND INVALID AS SPECIFIED'      42400020
&NOGO    SETB  1                                                        43200020
         AGO   .RTNCHK1                                        @Y17XAMN 43400000
.RTNCHK  ANOP                                                  @Y17XAMN 43600000
&U       SETA  4                                               @Y17XAMN 43800000
.RTNCHK1 AIF   ('&CONNECT' EQ 'AND' OR '&CONNECT' EQ 'OR').OP           44000000
         AIF   ('&CONNECT' EQ 'NAND').OP                        SA59170 44400022
         MNOTE 12,'***  IHB300  CONNECT OPERAND INVALID AS SPECIFIED'   44800020
&NOGO    SETB  1                                                        45600020
.OP      AIF   (&NOGO).MEND                                             46400020
         AIF   ('&CONNECT' NE 'AND').CKNAND                     SA59170 47200022
&ALG     SETA  1                                                        48000020
         AGO   .ORG                                             SA59170 48200022
.CKNAND  AIF   ('&CONNECT' NE 'NAND').ORG                       SA59170 48400022
&ALG     SETA  2                                                SA59170 48600022
.ORG     AIF   ('&DEST' EQ '').SMV                                      48800000
         AIF   ('&DEST' EQ 'ORIGIN' OR '&DEST' EQ 'DESTIN' OR '&DEST'(K*49600020
               '&DEST,1) EQ '''').SMV                                   50400020
         IEDQVCON (7,3,31,38),(IEDQAZ,IEDQAT,IEDQAE,IEDQAF)             51200020
         AGO   .TEST                                                    52000020
.SMV     IEDQVCON (7,3,38),(IEDQAZ,IEDQAT,IEDQAF)                       52800020
.TEST    AIF   (NOT &IEDQZA(1)).AT                                      53600020
&IEDQZA(18) SETB 1                                                      54400020
.AT      AIF   ('&MASK' EQ '0' OR '&MASK' EQ 'XL5''0''').SET    SA58454 55200022
         AIF   ('&MASK' EQ 'X''0000000000''').SET               SA58454 55300022
         AIF   ('&MASK' EQ 'XL5''0000000000''').SET             SA58454 55400022
         AIF   ('&MASK' EQ 'XL5''00''' OR '&MASK' EQ '').SET    SA58454 55500022
         AGO   .SKP                                             SA58454 55600022
.SET     ANOP                                                   SA58454 56000022
&BIT     SETA  &BIT+1                                                   56800000
.SKP     ANOP                                                           57600020
         AIF   (&BIT NE 1 AND &BIT NE 3).M                              59200020
&NAME    DC    AL1(&IEDQZE(7)+&BIT),AL1(16+&ALG+&U),AL1(1),AL1(0)       59300000
         AGO   .ERRTKG                                         @Y17XAMN 59500000
.M       ANOP                                                  @Y17XAMN 59600000
&NAME    DC    AL1(&IEDQZE(7)+&BIT),AL1(20+&ALG+&U),AL1(1)     @Y17XANQ 59700000
&LEN     SETA  0                                                        63200020
         AIF   ('&MASK'(1,1) EQ 'X').XM                                 64000020
         DC    FL5'&MASK' .             ERROR MASK                      64800020
         AGO   .ERRTKG                                         @Y17XAMN 65600000
.XM      DC    &MASK .                  ERROR MASK                      66400020
.ERRTKG  AIF   ('&TASK' EQ '').DEST                            @Y17XAMN 66480000
         DC    C'T',AL3(IEDQMISC+&IEDQZK)                      @Y17XAMN 66560000
IEDQMISC CSECT                                                 @Y17XAMN 66640000
         DC    AL1(&TASKNUM)                                   @Y17XAMN 66720000
         DC    C'&TASKNME'                                     @Y17XAMN 66800000
&C       CSECT                                                 @Y17XAMN 66880000
&IEDQZK  SETA  &IEDQZK+&TASKNUM+1                              @Y17XAMN 66960000
         AGO   .DATA                                           @Y17XAMN 67040000
.DEST    AIF   ('&DEST' EQ '').ORGDST                                   67200020
         AIF   ('&DEST' EQ 'ORIGIN').S                                  68000020
         AIF   ('&DEST' EQ 'DESTIN').D                                  68800020
         AIF   ('&DEST'(K'&DEST,1) EQ '''').DST                         69600020
         DC    C'O',AL1(&IEDQZE(31)),AL1(&DEST),AL1(15)        @OX19417 70400082
         AGO   .DATA                                                    71200020
.DST     ANOP                                                           72000020
&LEN     SETA  1                                                        72800020
IEDQMISC CSECT                                                          73600020
         DC    AL1(&D),&DEST .          DESTINATION                     74400020
         AIF   ('&DATA'(K'&DATA,1) NE '''').OUT                         75200020
         DC    &DATA .            ERROR MESSAGE                         76000020
.OUT     ANOP                                                           76800020
&C       CSECT                                                          77600020
         DC    C'N',AL3(IEDQMISC+&IEDQZK)                               78400020
&IEDQZK  SETA  &IEDQZK+1+&D                                             79200020
         AGO   .DATA                                                    80000020
.ORGDST  AIF   (&IEDQZA(2)).D                                           80800020
.S       DC    C'S',AL3(0) .            SEND TO SOURCE                  81600020
         AGO   .DATA                                                    82400020
.D       DC    C'D',AL3(0) .            SEND TO DESTINATION             83200020
.DATA    DC    AL1(&IEDQZE(3)),AL1(8+&U),AL1(&IEDQZE(38)),AL1(0)        84000000
         AIF   ('&DATA'(K'&DATA,1) EQ '''').CD                          84800020
         DC    AL1(0),AL3(&DATA) .      ERROR MESSAGE                   85600020
         AGO   .ERRNTK                                         @Y17XAMN 86400000
.CD      AIF   (&LEN EQ 1).DCV                                          87200020
IEDQMISC CSECT                                                          88000020
         DC    &DATA .                  ERROR MESSAGE                   88800020
&C       CSECT                                                          89600020
.DCV     DC    AL1(&IEDQZD),AL3(IEDQMISC+&IEDQZK)                       90400020
&IEDQZK  SETA  &IEDQZK+&IEDQZD                                          91200020
.ERRNTK  AIF   ('&EXIT' EQ '').MEND                            @Y17XANQ 92000000
         DC    AL4(&EXIT) .             ADDRESS OF EXIT ROUTINE         92800020
.MEND    SPACE 2                                                        93600020
         MEND                                                           94400020
