         MACRO                                                          00020000
&NAME    ESETL &DCB                                                     00040000
         AIF   ('&DCB' EQ '').E1                                        00060000
&NAME    IHBINNRA &DCB                                                  00080000
         L     15,84(0,1)                        LOAD ESETL ROUT. ADDR. 00100000
         BALR  14,15                             LINK TO ESETL ROUTINE  00120000
         MEXIT                                                          00140000
.E1      IHBERMAC 06                                                    00160000
         MEND                                                           00180000
