         MACRO                                                          00020000
&NAME    EXCP  &IOB                                                     00040000
         AIF   ('&IOB' EQ '').E1                                        00060000
&NAME    IHBINNRA &IOB                      LOAD REG 1                  00080000
         SVC   0                                 ISSUE SVC FOR EXCP     00100000
         MEXIT                                                          00120000
.E1      IHBERMAC 01,039                    IOB MISSING                 00140000
         MEND                                                           00160000
