         MACRO                                                          00050001
&NAME    EXLST &EODAD=,&SCIP=,&LERAD=,&AM=,                            C00100040
               &JRNAD=,&SYNAD=,&OPENAD=,&LOGON=,&RELREQ=,              C00110040
               &NSEXIT=,                                               C00120040
               &ATTN=,&TPEND=,&LOSTERM=,                               C00130040
               &DFASY=,&RESP=,&UPAD=,                                  C00140040
               &PARMS=,&PARM2=,&PARM3=                                  00150040
.*                                                                      00160040
.*             CHANGE LEVEL = 0                                @ZA34940 00170040
.*             DATE OF LAST CHANGE =  3  OCT   78 ( 78*276 )   @ZA34940 00180040
.*                                                                      00190040
.* FUNCTION-   THIS MACRO CONTAINS THE PROTOTYPE STATEMENT              00200040
.*             FOR THE EXLST MACRO.                                     00210040
.*             THE FUNCTION OF THIS MACRO IS TO DETERMINE IF            00220040
.*             THE PROGRAM ISSUING THE EXLST MACRO IS A VSAM            00230040
.*             OR A VTAM USER AND TO INVOKE MACRO EXLVS FOR             00240040
.*             VSAM OR ISTEXL1 FOR VTAM.                                00250040
.*                                                                      00350001
.*             PARAMETERS ARE PASSED TO THE EXLST MACRO IN THE          00360001
.*             FOLLOWING FORMS                                          00370001
.*                      KEYWORD=ADDRESS                                 00380001
.*                      KEYWORD=0                                       00390001
.*                      KEYWORD=(ADDRESS,N,L,A)                         00392040
.*                      KEYWORD=(0,N,A,L)                               00442040
.*                                                                      00492040
.* CHANGE ACTIVITY                                                      00542040
.*      CBMM SPLIT SUPPORT                                     @ZA34940 00592040
.*                                                                      00642040
         AIF   ('&AM' EQ 'VTAM').VTEXL  IS IT VTAM                      00692040
         AIF   ('&AM' EQ 'VSAM').VSEXL  IS IT VSAM                      00742040
         AIF   ('&AM' EQ '').VSEXL      IF NULL, DEFAULT VSAM           00792040
.*                                                                      00842040
         IDAVSERR 3,AM,&AM              ISSUE ERROR MSG                 00892040
         MEXIT                                                          00942040
.*                                                                      00992040
.*                                                                      01042040
.VTEXL   ANOP                                                           01092040
&NAME    ISTEXL1 EODAD=&EODAD,SCIP=&SCIP,LERAD=&LERAD,                 C01142040
               AM=&AM,JRNAD=&JRNAD,SYNAD=&SYNAD,                       C01192040
               OPENAD=&OPENAD,LOGON=&LOGON,RELREQ=&RELREQ,             C01242040
               NSEXIT=&NSEXIT,ATTN=&ATTN,TPEND=&TPEND,                 C01292040
               LOSTERM=&LOSTERM,DFASY=&DFASY,                          C01342040
               RESP=&RESP,UPAD=&UPAD,                                  C01392040
               PARMS=&PARMS,PARM2=&PARM2,PARM3=&PARM3                   01442040
.*                                                                      01492040
         MEXIT                                                          01542040
.*                                                                      01592040
.*                                                                      01642040
.VSEXL   ANOP                                                           01692040
&NAME    EXLVS EODAD=&EODAD,SCIP=&SCIP,LERAD=&LERAD,                   C01742040
               AM=&AM,JRNAD=&JRNAD,SYNAD=&SYNAD,                       C01792040
               OPENAD=&OPENAD,LOGON=&LOGON,RELREQ=&RELREQ,             C01842040
               NSEXIT=&NSEXIT,ATTN=&ATTN,TPEND=&TPEND,                 C01892040
               LOSTERM=&LOSTERM,DFASY=&DFASY,                          C01942040
               RESP=&RESP,UPAD=&UPAD,                                  C01992040
               PARMS=&PARMS,PARM2=&PARM2,PARM3=&PARM3                   02042040
.*                                                                      02092040
         MEND                                                           02142040
