*%/*                                                                    00030002
         MACRO                                                          00040002
&NAME    EXTRACT &LIST,&TBLOC,&FIELDS=O,&MF=I                           00050002
         LCLA  &I1,&I2,&NOFLDS,&LGTH,&SUM,&SUM2                   20021 00100002
         LCLB  &ISW,&LSW,&B(12),&BSET                             ***** 00150002
         LCLC  &T(12),&PARA                                       ***** 00200002
&NOFLDS  SETA  N'&FIELDS                                                00250002
         AIF   (&NOFLDS GT 12).E1                                 ***** 00300002
&T(1)    SETC  'GRS'                                                    00350002
&T(2)    SETC  'FRS'                                                    00400002
&T(3)    SETC  'TAX'                                                    00450002
&T(4)    SETC  'AETX'                                                   00500002
&T(5)    SETC  'PRI'                                                    00550002
&T(6)    SETC  'CMC'                                                    00600002
&T(7)    SETC  'TIOT'                                                   00650002
&T(8)    SETC  'COMM'                                              I272 00700002
&T(9)    SETC  'TSO'                                              20021 00750002
&T(10)   SETC  'PSB'                                              20021 00800002
&T(11)   SETC  'TJID'                                             20021 00850002
&T(12)   SETC  'ASID'                                             ***** 00900002
&I1      SETA  1                                                        00950002
         AIF   ('&MF' EQ 'L').LROUT                                     01000002
         AIF   ('&MF' EQ 'I').IROUT                                     01050002
         AIF   (N'&MF NE 2).E2                                          01100002
         AIF   ('&MF(1)' NE 'E').E2                                     01150002
&NAME    IHBINNRA &MF(2)                                                01200002
.CONTA   AIF   ('&LIST' EQ '').CHKTBK                                   01250002
         AIF   ('&LIST'(1,1) EQ '(').REGLIST                            01300002
         LA    14,&LIST                          PICK UP LIST ADDRESS   01350002
         ST    14,0(1,0)                         STORE INTO PARAM. LIST 01400002
         AGO   .CHKTBK                                                  01450002
.REGLIST ST    &LIST(1),0(1,0)                   STORE LIST ADDRESS     01500002
.CHKTBK  AIF   ('&TBLOC' EQ '').CHKFLD                                  01550002
         AIF   ('&TBLOC' EQ '''S''').STBLOC                             01600002
         AIF   ('&TBLOC'(1,1) EQ '(').REGTBK                            01650002
         LA    14,&TBLOC                         PICK UP TCB ADDRESS    01700002
         ST    14,4(1,0)                         STORE INTO PARAM. LIST 01750002
         AGO   .CHKFLD                                                  01800002
.REGTBK  ST    &TBLOC(1),4(1,0)                  STORE TCB ADDRESS      01850002
         AGO   .CHKFLD                                                  01900002
.STBLOC  SR    14,14                             INDICATE ISSUING TASK  01950002
         ST    14,4(1,0)                         TCB TO BE USED         02000002
.CHKFLD  AIF   ('&FIELDS' EQ 'O').ISVC                                  02050002
.LOOP    ANOP                                                           02100002
&I2      SETA  1                                                        02150002
&BSET    SETB  0                                                   I272 02200002
.TEST    AIF   (('&FIELDS(&I1)' NE '&T(&I2)') AND                      *02250002
               ('&FIELDS(&I1)' NE 'ALL' OR &I2 GT 7)).INCR         I272 02300002
&B(&I2)  SETB  1                                                   I272 02350002
&BSET    SETB  1                                                   I272 02400002
.INCR    AIF   (&I2 GT 7 AND &BSET).INCR2                         20021 02450002
         AIF   (&I2 GT 12).E3                                     ***** 02500002
&I2      SETA  &I2+1                                                    02550002
         AGO   .TEST                                                    02600002
.INCR2   AIF   (&I1 EQ &NOFLDS).SUMUP                                   02650002
&I1      SETA  &I1+1                                                    02700002
         AGO   .LOOP                                                    02750002
.SUMUP   ANOP                                                           02800002
&SUM     SETA  &B(7)*2+&B(6)*4+&B(5)*8+&B(4)*16+&B(3)*32+&B(2)*64+&B(1)X02850002
               *128+&B(8)*1                                        I272 02900002
&SUM2    SETA  &B(9)*128+&B(10)*64+&B(11)*32+&B(12)*16            ***** 02950002
.GOOUT   AIF   (&ISW).IRETURN                                           03000002
         AIF   (&LSW).LRETURN                                           03050002
         MVI   8(1),&SUM                         MOVE IN FIELDS BYTE    03100002
         MVI   9(1),&SUM2    .         MOVE IN FIELD BYTE 2       20021 03150002
.ISVC    SVC   40                                ISSUE EXTRACT SVC      03200002
         AGO   .END                                                     03250002
.IROUT   CNOP  0,4                                                      03300002
&NAME    BAL   1,*+16                            BRANCH AROUND LIST     03350002
         AIF   ('&LIST' EQ '').E4                                       03400002
         AIF   ('&LIST'(1,1) EQ '(').ZLIST                              03450002
         DC    A(&LIST)                          LIST ADDRESS           03500002
         AGO   .CKTBK                                                   03550002
.ZLIST   DC    A(0)                              LIST ADDRESS           03600002
.CKTBK   AIF   ('&TBLOC' EQ '' OR '&TBLOC' EQ '''S''').ZTBL             03650002
         AIF   ('&TBLOC'(1,1) EQ '(').ZTBL                              03700002
         DC    A(&TBLOC)                         TCB ADDRESS            03750002
         AGO   .CKFLD                                                   03800002
.ZTBL    DC    A(0)                              TCB ADDRESS            03850002
.CKFLD   AIF   ('&FIELDS' EQ 'O').E5                                    03900002
&ISW     SETB  1                                                        03950002
         AGO   .LOOP                                                    04000002
.IRETURN DC    AL1(&SUM)                         FIELD BYTE             04050002
         DC    AL1(&SUM2)    .         FIELD BYTE 2               20021 04100002
         DC    AL2(0) .                                           20021 04150002
         AIF   ('&LIST'(1,1) NE '(').TSTTBLK                            04200002
         ST    &LIST(1),0(1,0)                   STORE LIST ADDRESS     04250002
.TSTTBLK AIF   ('&TBLOC' EQ '').ISVC                                    04300002
         AIF   ('&TBLOC'(1,1) NE '(').ISVC                              04350002
         ST    &TBLOC(1),4(1,0)                  STORE TCB ADDRESS      04400002
         AGO   .ISVC                                                    04450002
.LROUT   DS    0F                                                       04500002
         AIF   ('&LIST' EQ '').NOLIST                                   04550002
         AIF   ('&LIST'(1,1) EQ '(').E6                                 04600002
&NAME    DC    A(&LIST)                          LIST ADDRESS           04650002
         AGO   .TESTTBK                                                 04700002
.NOLIST  ANOP                                                           04750002
&NAME    DC    A(0)                              LIST ADDRESS           04800002
.TESTTBK AIF   ('&TBLOC' EQ '' OR '&TBLOC' EQ '''S''').NOTBLK           04850002
         AIF   ('&TBLOC'(1,1) EQ '(').E6                                04900002
         DC    A(&TBLOC)                         TCB ADDRESS            04950002
         AGO   .TESTFLD                                                 05000002
.NOTBLK  DC    A(0)                              TCB ADDRESS            05050002
.TESTFLD AIF   ('&FIELDS' EQ 'O').NOFIELD                               05100002
&LSW     SETB  1                                                        05150002
         AGO   .LOOP                                                    05200002
.NOFIELD DC A(0)                                                        05250002
         AGO   .END                                                     05300002
.LRETURN DC    AL1(&SUM)                         FIELD BYTE             05350002
         DC    AL1(&SUM2)    .         FIELD BYTE 2               20021 05400002
         DC    AL2(0) .                                           20021 05450002
         AGO   .END                                                     05500002
.E1      IHBERMAC 94               MORE THAN MAX VAL IN FIELDS OP ***** 05550002
         MEXIT                                                          05600002
.E2      IHBERMAC 35,,&MF          INVALID MF OPERAND SPECIFIED   ***** 05650002
         MEXIT                                                          05700002
.E3      IHBERMAC 67,,&FIELDS(&I1) INVALID FIELDS OP SPECIFIED-   ***** 05750002
         MEXIT                                                          05800002
.E4      IHBERMAC 34               LIST OP REQ'D-NOT SPECIFIED    ***** 05850002
         MEXIT                                                          05900002
.E5      IHBERMAC 23               FIELDS OP REQ'D-NOT SPECIFIED  ***** 05950002
         MEXIT                                                          06000002
.E6      IHBERMAC 69               INVALID REG NOTATION W/ MF=L   ***** 06050002
.END     MEND                                                           06100002
**/                                                                     06150002
*EXTRACT: MACRO                                                         06200002
*        KEYS(FIELDS,MF);                                               06250002
*        ANS('?'||MACLABEL||'EXTRACTP '||MACLIST||MACKEYS||';');        06300002
*%END;                                                                  06350002
