         MACRO                                                          00020000
&NAME    FEOV  &DCB,&OPTION                                             00040019
         AIF   ('&DCB' EQ '').E1                                        00060000
         AIF   ('&OPTION'  EQ  '').CALL                                 00065019
         AIF   ('&OPTION'  EQ  'REWIND').CALL                           00070019
         AIF   ('&OPTION'  EQ  'LEAVE').CALL                            00075019
         AGO   .E2                                                      00080019
.CALL    ANOP                                                           00085019
&NAME    IHBINNRA  &DCB,,,,&OPTION                                      00090019
         SVC   31                                ISSUE FEOV SVC         00100000
         MEXIT                                                          00120000
.E2      IHBERMAC  49,,&OPTION                                          00126019
         MEXIT                                                          00132019
.E1      IHBERMAC 6                         NO DCB ADDR                 00140000
         MEND                                                           00160000
