         MACRO                                                          00020000
&NAME    FIND  &DCB,&AREA,&TYPE                                         00040000
         LCLB  &ERR(4)                                                  00050019
&ERR(1)  SETB  ('&DCB' EQ '')                                           00060019
&ERR(2)  SETB  ('&AREA' EQ '')                                          00070019
&ERR(3)  SETB  ('&TYPE' EQ '')                                          00080019
&ERR(4)  SETB  (NOT &ERR(3) AND '&TYPE' NE 'C' AND '&TYPE' NE 'D')      00090019
         AIF   (&ERR(1)+&ERR(2)+&ERR(3)+&ERR(4) NE 0).E0                00100019
         AIF   ('&TYPE' NE 'D').CTYPE                                   00120000
&NAME    IHBINNRA &DCB,&AREA                                            00140000
         LCR   1,1                               INDICATE TYPE D        00160000
         SVC   18                                ISSUE FIND SVC         00180000
         MEXIT                                                          00200000
.CTYPE   ANOP                                                           00220019
&NAME    IHBINNRA &DCB                                                  00240000
         AIF   ('&AREA'(1,1) EQ '(').REG                                00260000
         LA    15,&AREA                          LOAD AREA ADDRESS      00280000
         AGO   .CONT                                                    00300000
.REG     LR    15,&AREA(1)                       LOAD AREA ADDRESS      00320000
.CONT    MVC   0(4,1),0(15)                      MOVE RELAD TO DCB      00340000
         LR    0,1                               INDICATE TYPE C        00360000
         L     15,84(0,1)                    LOAD FIND RTN ADDR         00380019
         BAL   14,4(0,15)                    LINK TO FIND ROUTINE       00400019
         MEXIT                                                          00420000
.E0      AIF   (NOT &ERR(1)).E1                                         09420019
         IHBERMAC 6                     &DCB MISSING                    18420019
.E1      AIF   (NOT &ERR(2)).E2                                         27420019
         IHBERMAC 13                    &AREA MISSING                   36420019
.E2      AIF   (NOT &ERR(3)).E3                                         45420019
         IHBERMAC 25                    &TYPE MISSING                   54420019
.E3      AIF   (NOT &ERR(4)).MEND                                       63420019
         IHBERMAC 48,,&TYPE             &TYPE INVALID                   72420019
.MEND    MEND                                                           81420019
