         MACRO                                                          00020000
&NAME    FREEBUF &DCB,&REG,&DUMMY=                                      00030017
         LCLB  &NOGO                                                    00040017
         AIF   ('&DCB' EQ '').E1                                        00060000
.R1      AIF   ('&REG' EQ '').E2                                        00080017
.R2      AIF   ('&REG(1)' EQ '0').E3                                    00100017
         AIF   ('&REG(1)' EQ '1' OR '&REG(1)' EQ '14').E3               00120000
         AIF   (&NOGO EQ 1).TERM                                        00130017
&NAME    IHBINNRA &DCB                                                  00140000
         L     14,20(0,1)                        LOAD BUFCB ADDRESS     00160000
         MVC   0(4,&REG(1)),0(14)                ATTACH BUFFER TO CHAIN 00180000
         ST    &REG(1),0(0,14)                   PUT BUF ADDR IN BUFCB  00200000
         MEXIT                                                          00220000
.E1      IHBERMAC 06                                                    00240000
&NOGO    SETB  1                                                        00250017
         AGO   .R1                                                      00260017
.E2      IHBERMAC 18                                                    00280000
&NOGO    SETB  1                                                        00290017
         AGO   .R2                                                      00300017
.E3      IHBERMAC 37,,&REG                                              00320000
.TERM    MEND                                                           40320017
