* %/*                                                                   00000402
         MACRO                                                          00001002
&NAME    FREEMAIN &MODE,&LV=,&LA=,&A=,&SP=,&BRANCH=,&KEY=,&MF=I,       *00001402
               &RELATED=                                                00001502
*      OS/VS2 RELEASE 3 VERSION  -- 10/25/74                            00001603
         LCLC  &GNAME                                                   00001902
         LCLB  &AA,&B,&C,&D,&M(3),&GLBR,&BR,&UNCND,&SPREG,&KEYRG,&LVREG 00002002
         LCLA  &CTR,&SVCN,&PRG,&CND                                     00002102
&PRG     SETA  15             DEFAULT PARM REG FOR RC AND RU FORMS      00002202
&GNAME   SETC  'IHB'.'&SYSNDX'                                          00002302
         AIF   ('&KEY' EQ '').SKIP                                      00002602
         AIF   ('&MODE' NE 'RC' AND '&MODE' NE 'RU').ERRORA             00003402
         AIF   ('&BRANCH' EQ '').ERRORE ERROR, BRANCH=YES MISSING       00003502
         AIF   ('&BRANCH' NE 'YES' AND '&BRANCH'(1,1) NE '(').ERRORE    00003802
         AIF   ('&BRANCH(1)' NE 'YES').ERRORE                           00004602
&KEYRG   SETB  ('&KEY'(1,1) EQ '(')     KEY IS IN A REGISTER            00004702
         AIF   (&KEYRG).SKIP   REGISTER VALUE CANNOT BE CHECKED         00004802
         AIF   (T'&KEY NE 'N').SKIP     EQUATED KEYS CANNOT BE CHECKED  00004902
         AIF   (&KEY GT 15).ERRORB                                      00005002
.SKIP    AIF   ('&MF' EQ 'L' AND '&BRANCH' NE '').ERRORC                00005402
         AIF   ('&BRANCH' EQ '').BRCNT                                  00005602
         AIF   ('&BRANCH'(1,1) NE '(').BRSNG                            00005802
       AIF   ('&BRANCH(1)' NE 'YES' OR '&BRANCH(2)' NE 'GLOBAL').ERRORD 00006002
         AIF   ('&BRANCH(2)' EQ 'GLOBAL' AND '&MODE' NE 'RC' AND       *00006102
               '&MODE' NE 'RU').ERRORF                                  00006302
&GLBR    SETB  1                                                        00006802
&BR      SETB  1                                                        00007002
         AGO   .BRCNT                                                   00007202
.BRSNG   AIF   ('&BRANCH' NE 'YES').ERRORD                              00007402
&BR      SETB  1                                                        00007602
.BRCNT   ANOP                                                           00007802
&SVCN    SETA  5                                                        00008002
         AIF   (K'&MODE LT 2).SKPC                                      00008602
         AIF   ('&MODE'(2,1) NE 'C').SKPC                               00009502
&CND     SETA  32                                                       00010402
.SKPC    AIF   ('&MODE' EQ '' AND '&MF' EQ 'I').ERROR1                  00011302
         AIF   ('&LV' NE '' AND '&LA' NE '').ERROR5                     00012202
         AIF   ('&MODE' EQ '').CONTA                                    00013102
         AIF   ('&MODE'(1,1) EQ 'E' AND '&LA' NE '').ERROR6             00014002
         AIF   ('&MODE'(1,1) EQ 'R' AND '&LA' NE '').ERROR6             00014902
         AIF   ('&MODE'(1,1) EQ 'L' AND '&LV' NE '').ERROR4             00015802
         AIF   ('&MODE'(1,1) EQ 'V' AND '&LV' NE '').ERROR4             00016702
         AIF   ('&MODE'(1,1) EQ 'V' AND '&LA' NE '').ERROR6             00017602
.CONTA   AIF   ('&MF' NE 'I').CONTB                                     00018502
         AIF   ('&MODE'(1,1) EQ 'E' AND '&LV' EQ '').ERROR8             00019402
         AIF   ('&MODE'(1,1) EQ 'L' AND '&LA' EQ '').ERROR8             00020302
         AIF   ('&MODE'(1,1) NE 'R' AND '&A' EQ '').ERROR8              00021202
.CONTB   AIF   ('&MF' EQ 'L').LROUT                                     00022102
         AIF   ('&MF' EQ 'I').IROUT                                     00023002
         AIF   (N'&MF LE 1).ERROR2                                      00023902
         AIF   ('&MF(1)' NE 'E').ERROR2                                 00024802
&NAME    IHBINNRA &MF(2)                                                00025702
.CONTC   AIF   ('&MODE' EQ '').CONTD                                    00026602
&M(1)    SETB  ('&MODE'(1,1) EQ 'E')                                    00027502
&M(2)    SETB  ('&MODE'(1,1) EQ 'L')                                    00028402
&M(3)    SETB  ('&MODE'(1,1) EQ 'V')                                    00029302
         AIF   (&M(1)+&M(2)+&M(3) NE 1).ERROR7                          00030202
&CTR     SETA  128*&M(2)+192*&M(3)+&CND                                 00031102
         MVI   8(1),&CTR                         MOVE MODE BYTE TO LIST 00032002
.CONTD   AIF   ('&LV' EQ '').CONTG                                      00032902
         AIF   ('&LV'(1,1) EQ '(').ISAREGA                              00033802
         AIF   (T'&LV EQ 'N').CONTAA                                    00034702
.CONTBB  ANOP                                                           00035602
         B     *+8                               BRANCH AROUND LENGTH   00036502
         DC    AL4(&LV)                          LENGTH                 00037402
         MVC   0(4,1),*-4                        MOVE LENGTH INTO LIST  00038302
         AGO   .CONTG                                                   00039202
.CONTAA  AIF   (&LV GT 4095).CONTBB                                     00040102
         LA    14,&LV.(0,0)                      PICK UP LENGTH         00041002
         ST    14,0(0,1)                         STORE LENGTH INTO LIST 00041902
         AGO   .CONTG                                                   00042802
.ISAREGA ST    &LV(1),0(0,1)                     STORE LENGTH INTO LIST 00043702
.CONTG   AIF   ('&LA' EQ '').CONTH                                      00044602
         AIF   ('&LA'(1,1) EQ '(').ISAREGB                              00045502
         LA    14,&LA                            PICK UP LIST ADDRESS   00046402
         ST    14,0(0,1)                         STORE LA INTO LIST     00047302
         AGO   .CONTH                                                   00048202
.ISAREGB ST    &LA(1),0(0,1)                     STORE LA INTO LIST     00049102
.CONTH   AIF   ('&A' EQ '').CONTI                                       00050002
         AIF   ('&A'(1,1) EQ '(').ISAREGC                               00050902
         LA    14,&A                             PICK UP AREA LIST ADDR 00051802
         ST    14,4(0,1)                         STORE INTO LIST        00052702
         AGO   .CONTI                                                   00053602
.ISAREGC ST    &A(1),4(0,1)                      STORE A-ADDR INTO LIST 00054502
.CONTI   AIF   ('&SP' EQ '').FINI                                       00055402
         AIF   ('&SP'(1,1) EQ '(').ISAREGD                              00056302
         MVI   9(1),&SP                          MOVE SUBPOOL INTO LIST 00057202
         AGO   .FINI                                                    00058102
.ISAREGD STC   &SP(1),9(0,1)                     STORE SUBPOOL IN LIST  00059002
         AGO   .FINI                                                    00059402
.LROUT   AIF   ('&LV' EQ '').CONTJ                                      00061000
         AIF   ('&LV'(1,1) EQ '(').ERROR3                               00062000
&NAME    DC    A(&LV)                            LENGTH                 00063000
         AGO   .CONTL                                                   00064000
.CONTJ   AIF   ('&LA' EQ '').CONTK                                      00065000
         AIF   ('&LA'(1,1) EQ '(').ERROR3                               00066000
&NAME    DC    A(&LA)                            LIST ADDRESS           00067000
         AGO   .CONTL                                                   00068000
.CONTK   ANOP                                                           00069000
&NAME    DC    F'0'                                                     00070000
.CONTL   AIF   ('&A' EQ '').CONTM                                       00071000
         AIF   ('&A'(1,1) EQ '(').ERROR3                                00072000
         DC    A(&A)                             AREA LIST ADDRESS      00073000
         AGO   .CONTN                                                   00074000
.CONTM   DC    F'0'                              AREA LIST ADDRESS      00075000
.CONTN   AIF   ('&MODE' EQ '').CONTO                                    00076000
&M(1)    SETB  ('&MODE'(1,1) EQ 'E')                                    00077002
&M(2)    SETB  ('&MODE'(1,1) EQ 'L')                                    00078002
&M(3)    SETB  ('&MODE'(1,1) EQ 'V')                                    00079002
         AIF   (&M(1)+&M(2)+&M(3) NE 1).ERROR7                          00080000
&CTR     SETA  128*&M(2)+192*&M(3)+&CND                                 00081002
         DC    AL1(&CTR)                         MODE BYTE              00082000
         AGO   .CONTSP                                                  00083000
.CONTO   DC    AL1(0)                            MODE BYTE              00084000
.CONTSP  AIF   ('&SP' EQ '').CONTU                                      00085000
         AIF   ('&SP'(1,1) EQ '(').ERROR3                               00086000
         DC    AL1(&SP)                          SUBPOOL VALUE          00087000
         AGO   .FINISH                                                  00088000
.CONTU   DC    AL1(0)                            SUBPOOL VALUE          00089000
.FINISH  MEXIT                                                          00090000
.IROUT   AIF   ('&MODE'(1,1) EQ 'R').RROUT                              00091002
         AIF   ('&MODE'(1,1) EQ 'P').PROUT                     @Z30EN9G 00091503
         CNOP  0,4                                                      00092000
&NAME    BAL   1,*+14                            BRANCH AROUND LIST     00093000
         AIF   ('&LV' EQ '').CNTA                                       00094000
         AIF   ('&LV'(1,1) EQ '(').CNTB                                 00095000
         DC    A(&LV)                            LENGTH                 00096000
         AGO   .CNTC                                                    00097000
.CNTB    DC    A(0)                              LENGTH                 00098000
&AA      SETB  1                                                        00099000
         AGO   .CNTC                                                    00100000
.CNTA    AIF   ('&LA' EQ '').CNTDD                                      00101000
         AIF   ('&LA'(1,1) EQ '(').CNTD                                 00102000
         DC    A(&LA)                            LIST ADDRESS           00103000
         AGO   .CNTC                                                    00104000
.CNTD    ANOP                                                           00105000
&B       SETB  1                                                        00106000
.CNTDD   DC    A(0)                                                     00107000
.CNTC    AIF   ('&A'(1,1) EQ '(').CNTE                                  00108000
         DC    A(&A)                             AREA LIST ADDRESS      00109000
         AGO   .CNTF                                                    00110000
.CNTE    DC    A(0)                              AREA LIST ADDRESS      00111000
&C       SETB  1                                                        00112000
.CNTF    ANOP                                                           00113000
&M(1)    SETB  ('&MODE'(1,1) EQ 'E')                                    00114002
&M(2)    SETB  ('&MODE'(1,1) EQ 'L')                                    00115002
&M(3)    SETB  ('&MODE'(1,1) EQ 'V')                                    00116002
         AIF   (&M(1)+&M(2)+&M(3) NE 1).ERROR7                          00117000
&CTR     SETA  128*&M(2)+192*&M(3)+&CND                                 00118002
         DC    AL1(&CTR)                         MODE BYTE              00119000
.CNTSP   AIF   ('&SP' EQ '').CNTL                                       00120000
         AIF   ('&SP'(1,1) EQ '(').ISAREGQ                              00121000
         DC    AL1(&SP)                          SUBPOOL VALUE          00122000
         AGO   .CNTM                                                    00123000
.ISAREGQ DC    AL1(0)                            SUBPOOL VALUE          00124000
         STC   &SP(1),9(0,1)                     STORE SUBPOOL          00125002
         AGO   .CNTM                                                    00126000
.CNTL    DC    AL1(0)                            SUBPOOL VALUE          00127000
.CNTM    AIF   (NOT &AA).CNTN                                           00128000
         ST    &LV(1),0(0,1)                     STORE LENGTH IN LIST   00129002
         AGO   .CNTO                                                    00130000
.CNTN    AIF   (NOT &B).CNTO                                            00131000
         ST    &LA(1),0(0,1)                     STORE LA INTO LIST     00132002
.CNTO    AIF   (NOT &C).FINI                                            00133002
         ST    &A(1),4(0,1)                      STORE A-ADDR INTO LIST 00134002
         AGO   .FINI                                                    00134402
.RROUT   AIF   (K'&MODE EQ 2).NREGM                                     00134802
&SVCN    SETA  10                                                       00136802
         AIF   ('&LV' EQ '' AND '&A' EQ '').SPROUT                      00137002
         AIF   ('&LV' EQ '' OR '&A' EQ '').ERROR8                       00138002
         AIF   ('&LV' EQ '(0)' AND '&SP' NE '').ERROR9                  00138402
         AIF   ('&LV'(1,1) EQ '(').ISARGA                               00138802
         AIF   ('&SP' EQ '').CTUA                                       00142000
&D       SETB 1                                                         00142402
         AIF   ('&SP'(1,1) EQ '(').ISARGB                               00143000
.CMNB    CNOP  0,4                                                      00144002
&NAME    B     *+8                               BRANCH AROUND LENGTH   00145002
         AIF   (NOT &D).NSPS                                            00145402
         DC    AL1(&SP)                          SUBPOOL VALUE          00146000
         DC    AL3(&LV)                          LENGTH                 00147000
         AGO   .CMNA                                                    00147402
.NSPS    DC    A(&LV)                            LENGTH                 00147802
.CMNA    L     0,*-4                             LOAD SP AND LV         00148002
.CTUD    AIF   ('&A'(1,1) EQ '(').ISARGD                                00148402
         L     1,&A                              LOAD AREA ADDRESS      00148802
.CTUC    LA    1,0(0,1)                          CLEAR HI ORDER BYTE    00150802
         AGO   .FINI                                                    00152802
.CTUA    AIF   (T'&LV NE 'N').CMNB                                      00156002
         AIF   (&LV GT 4095).CMNB                                       00158002
&NAME    LA    0,&LV.(0,0)                       LOAD LENGTH            00161000
         AGO   .CTUD                                                    00162000
.ISARGD  AIF   ('&A(1)' EQ '1').CTUC                                    00163000
         LA    1,0(0,&A(1))                      LOAD AREA ADDRESS      00164002
         AGO   .FINI                                                    00165002
.PROUT   ANOP                                                  @Z30EN9G 00165103
         AIF   ('&BRANCH' EQ '').ERROR8                        @Z30EN9G 00166103
         AIF   ('&A'(1,1) EQ '(').PROUTR                       @Z30EN9G 00166403
&NAME    L     1,&A                        LOAD AREA ADDRESS   @Z30EN9G 00168803
         AGO   .CTUC                                           @Z30EN9G 00170003
.PROUTR  ANOP                                                  @Z30EN9G 00171003
&NAME    LA    1,0(0,&A(1))                LOAD AREA ADDRESS   @Z30EN9G 00172003
         AGO   .FINI                                           @Z30EN9G 00173003
.ISARGB  AIF   (T'&LV NE 'N').CONTFF                                    00174003
         AIF   (&LV GT 4095).CONTFF                                     00175003
&NAME    LR    0,&SP(1)                          PICK UP SUBPOOL        00176003
         SLL   0,24(0)                           SHIFT TO HI-ORDER BYTE 00177003
         LA    14,&LV.(0,0)                      PICK UP LENGTH         00178003
         OR    0,14                              PACK SP AND LV         00179003
         AGO   .CTUD                                                    00180003
.CONTFF  CNOP  0,4                                                      00181003
&NAME    B     *+8                               BRANCH AROUND LENGTH   00182003
         DC    A(&LV)                            LENGTH                 00183003
         LR    0,&SP(1)                          PICK UP SUBPOOL        00184003
         SLL   0,24(0)                           SHIFT TO HI-ORDER BYTE 00184803
         O     0,*-10                            PACK SP AND LV         00186003
         AGO   .CTUD                                                    00187003
.ISARGA  AIF   ('&NAME' EQ '').UNNAMED                                  00188003
&NAME    DS    0H                                                       00189003
.UNNAMED AIF   ('&LV(1)' EQ '0').CTUD                                   00190003
         AIF   ('&SP' NE '').CTUG                                       00191003
         LR    0,&LV(1)                          LOAD LENGTH            00192003
         AGO   .CTUD                                                    00193003
.CTUG    AIF   ('&SP'(1,1) EQ '(').CTUGP                                00194003
         LA    0,&SP.(0,0)                       LOAD SUBPOOL           00195003
         AGO   .CTUGPP                                                  00196003
.CTUGP   LR    0,&SP(1)                          LOAD SUBPOOL           00197003
.CTUGPP  SLL   0,24(0)                           SHIFT TO HI-ORDER BYTE 00198003
         OR    0,&LV(1)                          PACK SP AND LV         00199003
         AGO   .CTUD                                                    00200003
.SPROUT  AIF   ('&SP' EQ '').ERROR8                                     00201003
         AIF   ('&SP'(1,1) EQ '(').ISARGQ                               00202003
&NAME    LA    0,&SP.(0,0)                       LOAD SUBPOOL           00203003
.CTUX    SLL   0,24(0)                           SHIFT TO HI-ORDER BYTE 00204003
.CTUXX   SR    1,1                               INDICATE SP RELEASE    00205003
         AGO   .FINI                                                    00206803
.ISARGQ  AIF   ('&NAME' EQ '').NONE                                     00207403
&NAME    DS    0H                                                       00208003
.NONE    AIF   ('&SP(1)' EQ '0').CTUXX                                  00208803
         LR    0,&SP(1)                          LOAD SUBPOOL           00209803
         AGO   .CTUX                                                    00210803
.NREGM   ANOP      REGISTER (RC AND RU) FORMS OF FREEMAIN               00211803
&PRG     SETA  &PRG-12*&BR     CHANGE PARM REG FOR BRANCH ENTRY         00212803
&SVCN    SETA  120                                                      00213803
&UNCND   SETB  ('&MODE' EQ 'RU')                                        00214803
         AIF   ('&SP' EQ '').CONT1                                      00215803
&SPREG   SETB  ('&SP'(1,1) EQ '(')                                      00216803
.CONT1   ANOP                                                           00218203
&B       SETB  (&SPREG AND &KEYRG)                                      00220202
         AIF   ('&LV' EQ '' AND '&A' EQ '').NSPFM                       00223202
         AIF   ('&LV' EQ '' OR '&A' EQ '').ERROR8                       00224802
&LVREG   SETB  ('&LV'(1,1) EQ '(')                                      00226402
         CNOP  0,4                                                      00228002
&NAME    B     *+12-4*&LVREG-2*&B                BRANCH AROUND DATA     00229602
         AIF   (&LVREG OR '&LV' EQ '').CONT10                           00231102
         DC    A(&LV)                            LENGTH                 00231202
.CONT10  ANOP                                                           00232602
&GNAME.F DC    AL1(0)                            RESERVED               00232702
         AIF   ('&KEY' EQ '').CONT1A    KEY PARM PRESENT?               00232802
         AIF   (&KEYRG).CONT1B                                          00234802
         DC    AL1(&KEY*16)                      STORAGE KEY            00239202
         AGO   .CONT1B                                                  00239602
.CONT1A  DC    AL1(0)                            RESERVED               00240002
.CONT1B  AIF   (&SPREG).CONT1C                   SUBPOOL IN REGISTER?   00240802
         AIF   ('&SP' EQ '').CONT1E                                     00241202
         DC    AL1(&SP)                          SUBPOOL NUMBER         00242402
         AGO   .CONT1C                                                  00242802
.CONT1E  DC    AL1(0)                            SUBPOOL NUMBER         00243202
.CONT1C  DC    BL1'000000&UNCND.1'               MODE BYTE              00244002
         AIF   (&LVREG OR '&LV' EQ '').LVCHK                            00245500
         L     0,*-8+2*&B                        LOAD LENGTH            00246000
         AGO   .NCT1                                                    00246500
.LVCHK   AIF   (&D).CONT1D                                              00247000
         AIF   (NOT &LVREG).NCT1                                        00247500
.CNT1    AIF   ('&LV(1)' EQ '0').NCT1                                   00248000
         LR    0,&LV(1)                          LOAD LENGTH            00248500
.NCT1    AIF   ('&A'(1,1) EQ '(').NREGA                                 00249000
         L     1,&A                              LOAD AREA ADDRESS      00249500
         AGO   .CONT1D                                                  00250000
.NREGA   AIF   ('&A(1)' EQ '1').CONT1D                                  00250500
         LR    1,&A(1)                           LOAD AREA ADDRESS      00251000
.CONT1D  AIF   (&KEYRG OR &SPREG).KORSREG                               00252000
.*       NEITHER KEY NOR SP IS IN A REGISTER                            00252500
         L     &PRG.,&GNAME.F                    LOAD PARAMETERS        00253000
         AGO   .FINI                                                    00253500
.*       EITHER KEY OR SP IS A REGISTER                                 00254502
.KORSREG AIF   (&B).BOTHREG                                             00254902
.*       ONLY ONE OF KEY OR SP IS IN A REGISTER                         00255302
         AIF   (NOT &SPREG).KEYREG                                      00255702
.*       ONLY SP IS A REGISTER                                          00255802
         AIF   ('&SP(1)' EQ '&PRG').SPINPRG                             00255902
.*       SP IS NOT IN THE PREFERRED PARAMETER REGISTER.                 00256002
         LR    &PRG.,&SP(1)                      INSERT SUBPOOL ID      00256202
.SPINPRG SLL   &PRG.,8(0)                     SHIFT SP TO BYTE 2 YM1995 00256602
         ICM   &PRG.,13,&GNAME.F                 INSERT REST OF PARMS   00257002
         AGO   .FINI                                                    00257200
.*       ONLY KEY IS IN A REGISTER                                      00257603
.KEYREG  AIF   ('&KEY(1)' EQ '&PRG').KYINPRG                            00258803
.*       KEY IS NOT IN THE PREFERRED PARAMETER REGISTER                 00259203
         LR    &PRG.,&KEY(1)                     OBTAIN STORAGE KEY     00260003
.KYINPRG SLL   &PRG.,16(0)                   SHIFT KEY TO BYTE 1 YM1995 00261803
         ICM   &PRG.,11,&GNAME.F                 ADD REST OF PARMS      00262803
         AGO   .FINI                                                    00263800
.*       BOTH SP AND KEY ARE IN REGISTERS                               00264803
.BOTHREG AIF   ('&KEY(1)' NE '&SP(1)').NOTSAME                          00265803
.*       BOTH KEY AND SP ARE THE SAME REGISTER                          00266803
         AIF   ('&KEY(1)' EQ '&PRG').BOTHPRG                            00267803
.*       THE COMMON REGISTER IS NOT THE PREFERRED PARM REGISTER         00268803
         LR    &PRG.,&KEY(1)                     GET KEY & SUBPOOL ID   00269803
.BOTHPRG ICM   &PRG.,9,&GNAME.F                  ADD REST OF PARAMETERS 00270803
         AGO   .FINI                                                    00271800
.*       BOTH KEY AND SP ARE REGS, BUT THEY ARE DIFFERENT REGISTERS.    00272803
.NOTSAME AIF   ('&KEY(1)' EQ '&PRG' OR '&SP(1)' EQ '&PRG').PRGIS1       00273803
.*       NEITHER REGISTER IS THE PREFERRED PARAMETER REGISTER           00274803
         LR    &PRG.,&KEY(1)                     INSERT KEY             00275803
.ADDSP   SLL   &PRG.,8(0)                  SHIFT KEY INTO BYTE 2 YM1995 00276803
         OR    &PRG.,&SP(1)                      ADD SUBPOOL NUMBER     00277803
         SLL   &PRG.,8(0)                   SHIFT TO BYTES 1 & 2 YM1995 00278803
         AGO   .BOTHPRG                                                 00279803
.PRGIS1  AIF   ('&KEY(1)' EQ '&PRG').ADDSP                              00280803
.*       SP IS THE PREFERRED PARM REGISTER, KEY IS IN ANOTHER REG.      00281803
         SLL   &PRG.,8(0)                 MOVE SUBPOOL TO BYTE 2 YM1995 00282803
         SLL   &KEY(1),16(0)                 SHIFT KEY TO BYTE 1 YM1995 00283803
         OR    &PRG.,&KEY(1)                     COMBINE KEY & SUBPOOL  00284803
         AGO   .BOTHPRG                                                 00285803
.*       SUBPOOL FREEMAIN                                               00296802
.NSPFM   AIF   ('&SP' EQ '').ERROR8                                     00298402
         CNOP  0,4                                                      00300002
&NAME    SR    0,0                               ZERO LENGTH            00301602
         SR    1,1                               INDICATE SP RELEASE    00303202
         B     *+8-2*&B                          BRANCH AROUND VALUES   00304802
&D       SETB  1                                                        00306402
         AGO   .CONT10                                                  00308002
.FINI    AIF   (&BR).SETBE                                              00309602
         SVC   &SVCN                             ISSUE FREEMAIN SVC     00311202
         MEXIT                                                          00312802
.SETBE   L     15,CVTPTR(0,0)                    LOAD THE CVT ADDRESS   00314402
         AIF   ('&MODE' EQ 'P').CBBE                           @Z30EN9G 00315203
         AIF   (&SVCN EQ 120).CRBE                                      00316002
         AIF   (&SVCN EQ 10).RMBE                                       00319202
         L     15,CVTLFRM-CVTMAP(0,15)           FREEMAIN ENTRY ADDRESS 00320802
         AGO   .SBE                                                     00322402
.CBBE    L     15,CVTCBBR-CVTMAP(0,15)  FREEMAIN ENTRY ADDRESS @Z30EN9G 00322903
         AGO   .SBE                                            @Z30EN9G 00323403
.RMBE    L     15,CVTRMBR-CVTMAP(0,15)           FREEMAIN ENTRY ADDRESS 00324002
         AGO   .SBE                                                     00326002
.CRBE    AIF   (&GLBR).GLBE   GLOBAL BRANCH ENTRY?                      00328002
         L     15,CVTCRMN-CVTMAP(0,15)           FREEMAIN ENTRY ADDRESS 00328402
         AGO   .SBE                                                     00328802
.GLBE    L     4,CVTSPSA-CVTMAP(0,15)            SAVE AREA VECTOR       00329202
         L     4,WSAGGMFM-WSAG(0,4)              GLOBAL SAVE AREA ADDR  00329302
         L     15,CVTGLMN-CVTMAP(0,15)           GLBRANCH ENTRY ADDR    00329602
.SBE     BALR  14,15                             BRANCH TO FREEMAIN     00330002
         MEXIT                                                          00332002
.ERROR1  IHBERMAC 17                                                    00334002
         MEXIT                                                          00344002
.ERROR2  IHBERMAC 1001,MF,&MF INVALID MF OPERAND -- &MF                 00374002
         MEXIT                                                          00424002
.ERROR3  IHBERMAC 69                                                    00474002
         MEXIT                                                          00524002
.ERROR4  IHBERMAC 89                                                    00574002
         MEXIT                                                          00624002
.ERROR5  IHBERMAC 91                                                    00674002
         MEXIT                                                          00724002
.ERROR6  IHBERMAC 90                                                    00774002
         MEXIT                                                          00824002