         MACRO                                                          00020000
&NAME    FREEDBUF &DECB,&TYPE,&DCB                                      00040000
         LCLB  &ERR(3)                                                  00050019
&ERR(1)  SETB  ('&DECB' EQ '')                                          00060019
&ERR(2)  SETB  ('&DCB' EQ '')                                           00070019
&ERR(3)  SETB  ('&TYPE' NE '' AND '&TYPE' NE 'D' AND '&TYPE' NE 'K')    00080019
         AIF   (&ERR(1)+&ERR(2)+&ERR(3) NE 0).E0                        00090019
&NAME    IHBINNRA &DCB,&DECB                                            00140000
         SVC   57                                ISSUE FREEDBUF SVC     00160000
         MEXIT                                                          00180000
.E0      AIF   (NOT &ERR(1)).E1                                         10180019
         IHBERMAC 7                     &DECB MISSING                   20180019
.E1      AIF   (NOT &ERR(2)).E2                                         30180019
         IHBERMAC 6                     &DCB MISSING                    40180019
.E2      AIF   (NOT &ERR(3)).MEND                                       50180019
         IHBERMAC 48,,&TYPE             &TYPE INVALID                   60180019
.MEND    MEND                                                           70180019
