         MACRO                                                          00050000
&NAME    GDUAS &ID=,&GDUNUMB=                                           00100000
         GBLA  &IECGNUM,&IECGDAS,&IECCNTR                               00150000
.*             IECGNUM   TOTAL NUMBER OF GUIDANCE DISPLAY UNITS         00200000
.*             IECGDAS   VALUE OF ID OPERAND OF LAST GDUAS MACRO        00250000
.*             IECCNTR   VALUE OF ID OPERAND OF LAST AS MACRO           00300000
         GBLB  &IECSW(9),&IECSEQ(10),&IECSQ(7),&IECGDSW                 00350000
.*             IECGDSW   INDICATES GDU=YES IN CONFIGUR MACRO            00400000
.*             IECSQ(1) SEQUENCE INDICATOR FOR GDUAS MACRO              00450000
         LCLA  &A                                                       00500000
         LCLB  &NOCODE                                                  00550000
         LCLC  &CHAR                                                    00600000
         ACTR  1000                                                     00650000
         AIF   (&IECSEQ(1) AND &IECSEQ(2) AND NOT&IECSEQ(3) AND NOT &IEC00700000
               CSEQ(4) AND NOT&IECSEQ(5) AND NOT&IECSEQ(6)).SEQOK       00750000
.SEQERR  ANOP                                                           00800000
&NOCODE  SETB  1                                                        00850000
         MNOTE 12,'MACRO SEQUENCE ERROR'                                00900000
         AGO   .SEQDON                                                  00950000
.SEQOK   ANOP                                                           01000000
         AIF   (NOT&IECSEQ(7) AND NOT&IECSEQ(8) AND NOT&IECSEQ(9) AND  X01050000
               NOT&IECSEQ(10) AND NOT&IECSQ(2) AND NOT&IECSQ(3)).SQ1    01100000
         AGO   .SEQERR                                                  01150000
.SQ1     ANOP                                                           01200000
         AIF   (NOT&IECSQ(4) AND NOT&IECSQ(5) AND NOT&IECSQ(6)).SEQDON  01250000
         AGO   .SEQERR                                                  01300000
.SEQDON  ANOP                                                           01350000
         AIF   (&IECGDSW).GDUOK                                         01400000
&NOCODE  SETB  1                                                        01450000
         MNOTE 12,'GDU=YES MUST BE CODED IN CONFIGUR MACRO'             01500000
.GDUOK   ANOP                                                           01550000
         AIF   (T'&ID NE 'O').ID1                                       01600000
&NOCODE  SETB  1                                                        01650000
         MNOTE 12,'ID OPERAND CANNOT BE OMITTED'                        01700000
         AGO   .NUM4                                                    01750000
.ID1     ANOP                                                           01800000
         AIF   (T'&ID EQ 'N').ID2                                       01850000
&NOCODE  SETB  1                                                        01900000
         MNOTE 12,'ID OPERAND HAS INVALID TYPE ATTRIBUTE'               01950000
         AGO   .NUM4                                                    02000000
.ID2     ANOP                                                           02050000
         AIF   (&ID GE 0 AND &ID LE 99).ID3                             02100000
&NOCODE  SETB  1                                                        02150000
         MNOTE 12,'ID OPERAND IS NOT IN RANGE OF 0 TO 99'               02200000
.ID3     ANOP                                                           02250000
         AIF   (&IECSQ(1)).ID4                                          02300000
         AIF   (&ID EQ 0).NUM                                           02350000
.ID4     ANOP                                                           02400000
         AIF   (&ID GT &IECGDAS).NUM                                    02450000
&NOCODE  SETB  1                                                        02500000
         MNOTE 12,'ID OPERAND MUST BE GREATER THAN ID OF PREV   MACRO'  02550000
.NUM     ANOP                                                           02600000
         AIF   (&ID LE &IECCNTR).NUM4                                   02650000
&NOCODE  SETB  1                                                        02700000
         MNOTE 12,'ID OPERAND CAN NOT BE HIGHER THAN HIGHEST ID OPERANDX02750000
               IN AS MACROS'                                            02800000
.NUM4    ANOP                                                           02850000
         AIF   (T'&GDUNUMB NE 'O').NUM1                                 02900000
&NOCODE  SETB  1                                                        02950000
         MNOTE 12,'GDUNUMB OPERAND CANNOT BE OMITTED'                   03000000
         AGO   .GEN                                                     03050000
.NUM1    ANOP                                                           03100000
         AIF   (T'&GDUNUMB EQ 'U').NUM7                                 03150000
         AIF   (T'&GDUNUMB EQ 'N').NUM2                                 03200000
.NUM7    ANOP                                                           03250000
&NOCODE  SETB  1                                                        03300000
         MMOTE 12,' GDUNUMB OPERAND HAS INVALID TYPE ATTRIBUTE'         03350000
         AGO   .GEN                                                     03400000
.NUM2    ANOP                                                           03450000
         AIF   (&GDUNUMB GE 1 AND &GDUNUMB LE 16).GEN                   03500000
&NOCODE  SETB  1                                                        03550000
         MNOTE 12,'GDUNUMB OPERAND NOT IN VALID RANGE OF 1 TO 16'       03600000
.GEN     ANOP                                                           03650000
         AIF   (K'&GDUNUMB EQ 1 OR K'&GDUNUMB EQ 2).GENN1               03700000
&NOCODE  SETB  1                                                        03750000
         MNOTE 12,'GDUNUMB OPERAND HAS INVALID NUMBER OF CHARACTERS'    03800000
.GENN1   ANOP                                                           03850000
         AIF   (&NOCODE).NOGEN                                          03900000
         AIF   (&IECSQ(1)).NONAME                                       03950000
IECGDUAS EQU   *   GUIDANCE DISPLAY UNIT AREA STATION TABLE             04000000
.NONAME  ANOP                                                           04050000
&A       SETA  &IECGDAS+1                                               04100000
         AIF   (&ID EQ &A AND &ID EQ 1 AND NOT &IECSQ(1)).GEN1          04150000
.LOOP    AIF   (&ID EQ &A OR &ID EQ 0).GEN2                             04200000
         AIF   (&IECGDAS NE 0 OR &IECSQ(1)).GEN3                        04250000
.GEN1    ANOP                                                           04300000
&IECGDAS SETA 1                                                         04350000
&A       SETA  0                                                        04400000
.GEN3    ANOP                                                           04450000
         DC    YL1(0)                                                   04500000
&A       SETA  &A+1                                                     04550000
         AGO   .LOOP                                                    04600000
.GEN2    ANOP                                                           04650000
&IECGDAS SETA  &ID                                                      04700000
&IECSQ(1) SETB 1                                                        04750000
         AIF   (&IECGNUM LE 256).GEN5                                   04800000
         MNOTE 3,'TOTAL NUMBER OF GUIDANCE DISPLAY UNITS EXCEEDS 256,  X04850000
               GDUNUMB OPERAND IGNORED'                                 04900000
         DC    YL1(0)                                                   04950000
         AGO   .MEND                                                    05000000
.GEN5    ANOP                                                           05050000
         DC    YL1(&IECGNUM)                                            05100000
&IECGNUM SETA  &IECGNUM+&GDUNUMB                                        05150000
         AGO   .MEND                                                    05200000
.NOGEN   ANOP                                                           05250000
         MNOTE 12,'TEXT GENERATION SUPPRESSED'                          05300000
.MEND    ANOP                                                           05350000
         MEND                                                           05400000
