         MACRO                                                          00050000
&NAME    GET   &CB,&AREA,&RPL=,&TYPE=                           XL73126 00100000
.*       CHANGE LEVEL = 07                                              00150000
.*       DATE OF LAST CHANGE = 21 JULY 83 (OZ73126)                     00187500
.*       &TYPE= PARAMETER DROPPED RESHIPPED BY OZ73126                  00225000
         AIF   ('&CB' NE '').NJES       NON JES EXPANSION       XL03123 00262500
         AIF   ('&RPL' NE '').JES       JES MACRO EXPANSION             00300000
         IHBERMAC 02                                            XL03123 00350000
         MEXIT                                                          00400000
.NJES    ANOP                                                           00450000
&NAME    IHBINNRA &CB,&AREA                                     XL03123 00475000
         AIF   ('&TYPE' EQ '').GET40                            XL03123 00500000
         AIF   ('&TYPE' NE 'P').E2                              XL03123 00525000
         L     15,4(0,1)                LOAD PARALLEL GET RTN ADDR      00550000
         AGO   .GET45                                           XL03123 00575000
.GET40   L     15,48(0,1)               LOAD GET ROUTINE ADDR           00600000
.GET45   BALR  14,15                    LINK TO GET ROUTINE             00625000
         MEXIT                                                          00650000
.JES     ANOP                                                           00700000
&NAME    DS    0H                                                       00750000
         AIF   ('&RPL'(1,1) EQ '(').RPLR                                00800000
         LA    1,&RPL                   LOAD RPL ADDR                   00850000
         AGO   .AREG                                                    00900000
.RPLR    LR    1,&RPL(1)                LOAD RPL ADDR VIA REG           00950000
.AREG    LA    0,X'00'                  INDICATE GET IN REG             01000000
         L     15,24(1)                 LOAD ACB ADDR FROM RPL          01050000
         L     15,8(15)                 LOAD JES INTERFACE MOD ADDR     01300000
         BALR  14,15                    LINK TO INTERFACE ROUTINE       01400000
         MEXIT                                                  XL03123 01433300
.E2      IHBERMAC 48,,&TYPE             INVALID TYPE OPND       XL03123 01466600
         MEND                                                           01500000
