         MACRO                                                          00050002
&NAME    GETCELL   &CPID=,&BRANCH=YES,&SAVE=YES,&RELATED=               00100002
*        OS/VS2 RELEASE 2   ---   9/15/73                               00120002
         AIF   ('&BRANCH' NE 'YES').ERR1    BRANCH=YES MANDATORY        00150002
         AIF   ('&CPID' EQ '').ERR3         CPID REQUIRED               00160002
         AIF   ('&CPID'(1,1) NE '(').ERR2   CPID MUST BE REGISTER       00200002
         AIF   ('&SAVE' EQ 'YES' OR '&SAVE' EQ 'NO').SAVOK              00202002
         IHBERMAC 1015,&SAVE,''SAVE='',YES                              00206002
.*       SYNTAX OK, CONTINUE WITH THE EXPANSION.                        00208002
.SAVOK   AIF   ('&NAME' EQ '').SKPN                                     00210002
&NAME    DS    0H                       GETCELL MACRO                   00250002
.SKPN    AIF   ('&SAVE' EQ 'NO').NRGS                                   00300002
         STM   2,12,28(13)         SAVE CALLERS REGISTERS 2-12          00350002
.NRGS    AIF   ('&CPID(1)' EQ '0').NZLD                                 00400002
         LR    0,&CPID(1)          LOAD R0 WITH CPID                    00450002
.NZLD    L     3,16(0,0)           CVT ADDRESS FOR GETCELL      YM02296 00550002
         L     15,CVTGETCL-CVTMAP(0,3)    LOAD GETCELL RT ENTRY POINT   00600002
         BALR  14,15               GO TO GETCELL ROUTINE                00650002
         AIF   ('&SAVE' EQ 'NO').NRGR                                   00700002
         LM    2,12,28(13)         RESTORE CALLERS REGISTERS            00750002
.NRGR    MEXIT                                                          00800002
.ERR1    IHBERMAC 1006,''BRANCH=YES''                                   00850002
         MEXIT                                                          00900002
.ERR2    IHBERMAC 1001,CPID,&CPID                                       00950002
         MEXIT                                                          00960002
.ERR3    IHBERMAC 1006,CPID                                             00970002
         MEND                                                           01000002
