* %/*                                                                   00000402
         MACRO                                                          00002000
&NAME    GETMAIN &MODE,&LV=,&LA=,&A=,&SP=,&MF=I,&HIARCHY=,&BNDRY=,     X00004002
               &KEY=,&BRANCH=,&RELATED=                                 00004402
*      OS/VS2 RELEASE 4 VERSION -- 10/21/75                             00004804
         LCLA  &SVCN,&PRG                                               00006002
         LCLB  &B,&C,&D,&GLBR,&BR,&SPREG,&UNCND,&BND,&L,&V,&CND         00008002
         LCLB  &KEYRG,&LVREG                                            00008402
         LCLC  &GNAME                                                   00010002
.*0000000400,012200,013000-013200,016800-017600,026600-026800      LC0A 00012000
.*    047000                                                       LC0A 00014000
&GNAME   SETC  'IHB'.'&SYSNDX'                                          00014402
&PRG     SETA  15                 DEFAULT REGISTER FOR RC AND RU        00014602
         AIF   ('&MODE' EQ '').NOMODE                                   00014702
         AIF   ('&MODE'(1,1) NE 'V' AND '&MODE'(1,1) NE 'E' AND        *00015102
               '&MODE'(1,1) NE 'L' AND '&MODE'(1,1) NE 'R' AND         *00015503
               '&MODE'(1,1) NE 'P').ERROR7                     @Z30EN9G 00015703
         AIF   (K'&MODE EQ 1).MODE1    SINGLE CHARACTER MODE?           00015902
         AIF   ('&MODE'(2,1) NE 'U' AND '&MODE'(2,1) NE 'C').ERROR7     00016402
.MODE1   ANOP                                                           00016502
&L       SETB  ('&MODE'(1,1) EQ 'V' OR '&MODE'(1,1) EQ 'L')             00016602
&V       SETB  ('&MODE'(1,1) EQ 'V')                                    00018602
         AIF   ('&MODE'(1,1) EQ 'R' OR '&MODE'(1,1) EQ 'P').NOMODE      00018703
         AIF   (K'&MODE EQ 1).ERROR7                                    00018802
&CND     SETB  ('&MODE'(2,1) EQ 'C')                                    00019002
.NOMODE  AIF   ('&BNDRY' EQ '').NOBNDRY                                 00019402
&BND     SETB  ('&BNDRY' EQ 'PAGE')                                     00019802
.NOBNDRY AIF   ('&KEY' EQ '').SKIP                                      00019902
         AIF   ('&MODE' NE 'RC' AND '&MODE' NE 'RU').ERRORA             00021802
         AIF   ('&BRANCH' EQ '').ERRORE                                 00023702
         AIF   ('&BRANCH' NE 'YES' AND '&BRANCH'(1,1) NE '(').ERRORA    00025602
         AIF   ('&BRANCH(1)' NE 'YES').ERRORE                           00027502
         AIF   ('&KEY'(1,1) EQ '(').SKIP                                00027902
         AIF   (T'&KEY NE 'N').SKIP   CAN'T CHECK EQUATED VALUE         00029402
         AIF   (&KEY GT 15).ERRORB                                      00031302
.SKIP    AIF   ('&MF' EQ 'L' AND '&BRANCH' NE '').ERRORC                00035102
         AIF   ('&BRANCH' EQ '').BRCNT                                  00037002
         AIF   (N'&BRANCH LT 2).BRSNG                                   00038902
       AIF   ('&BRANCH(1)' NE 'YES' OR '&BRANCH(2)' NE 'GLOBAL').ERRORD 00040802
         AIF   ('&BRANCH(2)' EQ 'GLOBAL' AND '&MODE' NE 'RC' AND       *00042702
               '&MODE' NE 'RU').ERRORF                                  00044602
&GLBR    SETB  1                                                        00046502
&BR      SETB  1                                                        00048402
         AGO   .BRCNT                                                   00050302
.BRSNG   AIF   ('&BRANCH' NE 'YES').ERRORD                              00052202
&BR      SETB  1                                                        00054102
.BRCNT   ANOP                                                           00056002
&SVCN    SETA  4                                                        00057902
         AIF   ('&MODE' EQ '' AND '&MF' EQ 'I').ERROR1                  00059802
         AIF   ('&LV' NE '' AND '&LA' NE '').ERROR5                     00061702
         AIF   ('&MODE' EQ '').CONT1                                    00063602
         AIF   ('&MODE'(1,1) EQ 'E' AND '&LA' NE '').ERROR6             00065502
         AIF   ('&MODE'(1,1) EQ 'R' AND '&LA' NE '').ERROR6             00067402
         AIF   ('&BNDRY' NE '' AND '&BNDRY' NE 'DBLWD' AND '&BNDRY'    X00069302
               NE 'PAGE').ERROR10                                       00071202
         AIF   ('&BNDRY' EQ 'PAGE' AND '&MODE' EQ 'R').ERR10A           00073102
         AIF   ('&MODE'(1,1) EQ 'L' AND '&LV' NE '').ERROR4             00075002
         AIF   ('&MODE'(1,1) EQ 'V' AND '&LV' NE '').ERROR4             00076902
         AIF   ('&HIARCHY' EQ '' OR '&HIARCHY' EQ '0' OR '&HIARCHY' EQ X00078802
               '1').CONT1                                               00080702
         IHBERMAC 195                                                   00082602
         MEXIT                                                          00084502
.CONT1   AIF   ('&MF' EQ 'L').LROUT                                     00086402
         AIF   ('&MF' EQ 'I').IROUT                                     00088302
         AIF   (N'&MF LE 1).ERROR2                                      00090202
         AIF   ('&MF(1)' NE 'E').ERROR2                                 00092102
&NAME    IHBINNRA &MF(2)                                                00094002
         AIF   ('&LV' EQ '').CONTB                                      00095902
         AIF   ('&LV'(1,1) EQ '(').ISAREG                               00097802
         AIF   (T'&LV NE 'N').CONTBB                                    00099702
         AIF   (&LV LE 4095).CONTAA                                     00101602
.CONTBB  CNOP  0,4                                                      00103502
         B     *+8                               BRANCH AROUND LENGTH   00105402
         DC    A(&LV)                            LENGTH                 00107302
         MVC   0(4,1),*-4                        MOVE LENGTH INTO LIST  00109202
         AGO   .CONTB                                                   00111102
.CONTAA  LA    14,&LV.(0,0)                      PICK UP LENGTH         00113002
         ST    14,0(0,1)                         STORE INTO LIST        00114902
         AGO   .CONTB                                                   00116802
.ISAREG  ST    &LV(1),0(0,1)                     STORE LENGTH INTO LIST 00118702
.CONTB   AIF   ('&LA' EQ '').CONTD                                      00145302
         AIF   ('&LA'(1,1) EQ '(').ISAREGA                              00147202
         LA    14,&LA                            PICK UP LIST ADDRESS   00149102
         ST    14,0(0,1)                         STORE INTO PARAM LIST  00151002
         AGO   .CONTD                                                   00152902
.ISAREGA ST    &LA(1),0(0,1)                     STORE LA IN PARAM LIST 00154802
.CONTD   AIF   ('&MODE' EQ '' AND '&BNDRY' EQ '').CONTE                 00156802
         MVI   8(1),B'&L&V&CND&BND.0000'         SET MODE / BNDRY FLGS  00158602
.CONTE   AIF   ('&A' EQ '').CONTI                                       00204202
         AIF   ('&A'(1,1) EQ '(').ISAREGB                               00206102
         LA    14,&A                             LOAD AREA LIST ADDRESS 00208002
         ST    14,4(0,1)                         STORE INTO PARAM LIST  00209902
         AGO   .CONTI                                                   00211802
.ISAREGB ST    &A(1),4(1,0)                      STORE INTO PARAM LIST  00213702
.CONTI   AIF   ('&SP' EQ '').FINI                                       00215602
         AIF   ('&SP'(1,1) EQ '(').ISAREGC                              00217502
         MVI   9(1),&SP                          MOVE IN SUBPOOL VALUE  00219402
         AGO   .FINI                                                    00221302
.ISAREGC STC   &SP(1),9(1,0)                     STORE SUBPOOL VALUE    00223202
         AGO   .FINI                                                    00225102
.LROUT   AIF   ('&LV' EQ  '').CONTJ                                     00227002
         AIF   ('&LV'(1,1) EQ '(').ERROR3                               00228902
&NAME    DC    A(&LV)                            LENGTH                 00230802
         AGO   .CONTLL                                                  00232702
.CONTJ   AIF   ('&LA' EQ '').CONTK                                      00234602
         AIF   ('&LA'(1,1) EQ '(').ERROR3                               00236502
&NAME    DC    A(&LA)                            ADDR. OF LENGTH LIST   00238402
         AGO   .CONTLL                                                  00240302
.CONTK   ANOP                                                           00242202
&NAME    DC   A(0)                               LA OR LU               00244102
.CONTLL  AIF   ('&A' EQ '').CONTM                                       00246000
         AIF   ('&A'(1,1) EQ '(').ERROR3                                00248000
         DC    A(&A)                             ADDR. OF ADDR. LIST    00250002
         AGO   .CONTN                                                   00252000
.CONTM   DC    A(0)                              ADDR. OF ADDR. LIST    00254002
.CONTN   DC    BL1'&L&V&CND&BND.0000'            MODE AND OPTION FLAGS  00304002
         AIF   ('&SP' EQ '').CONTU                                      00350002
         AIF   ('&SP'(1,1) EQ '(').ERROR3                               00352000
         DC    AL1(&SP)                          SUBPOOL VALUE          00354000
         AGO   .FINISH                                                  00356000
.CONTU   DC    AL1(0)                            SUBPOOL VALUE          00358000
.FINISH  MEXIT                                                          00360000
.IROUT   AIF   ('&MODE'(1,1) EQ 'R').RROUT                              00362002
         AIF   ('&MODE'(1,1) EQ 'P').PROUT                     @Z30EN9G 00363003
         AIF   ('&LV' EQ '' AND '&LA' EQ '').ERROR8                     00364000
         CNOP  0,4                                                      00366000
&NAME    BAL   1,*+14                            BRANCH AROUND LIST     00368000
         AIF   ('&LV' EQ '').CNTA                                       00370000
         AIF   ('&LV'(1,1) EQ '(').CNTB                                 00372000
         DC    A(&LV)                            LENGTH                 00374000
         AGO   .CNTC                                                    00376000
.CNTB    DC    A(0)                              LENGTH                 00378000
&B       SETB  1                                                        00380000
         AGO   .CNTC                                                    00382000
.CNTA    AIF   ('&LA'(1,1) EQ '(').CNTD                                 00384000
         DC    A(&LA)                            ADDR. OF LENGTH LIST   00386000
         AGO   .CNTC                                                    00388000
.CNTD    DC    A(0)                              ADDR. OF LENGTH LIST   00390000
&C       SETB  1                                                        00392000
.CNTC    AIF   ('&A' EQ '').ERROR8                                      00394000
         AIF   ('&A'(1,1) EQ '(').CNTE                                  00396000
         DC    A(&A)                  ADDR. OF ADDR. LIST               00406002
         AGO   .CNTF                                                    00408000
.CNTE    DC    A(0)                              ADDR. OF ADDR. LIST    00410000
&D       SETB  1                                                        00412000
.CNTF    DC    BL1'&L&V&CND&BND.0000'            MODE AND OPTION FLAGS  00462002
         AIF   ('&SP' EQ '').CNTL                                       00496002
         AIF   ('&SP'(1,1) EQ '(').ISAREGQ                              00498000
         DC    AL1(&SP)                          SUBPOOL VALUE          00500000
         AGO   .CNTM                                                    00502000
.ISAREGQ DC    AL1(0)                            SUBPOOL VALUE          00504000
         STC   &SP(1),9(0,1)                     STORE SP INTO LIST     00506002
         AGO   .CNTM                                                    00508000
.CNTL    DC    AL1(0)                            SUBPOOL VALUE          00510000
.CNTM    AIF   (NOT &B).CNTN                                            00512000
         ST    &LV(1),0(0,1)                     STORE LENGTH INTO LIST 00514002
         AGO   .CNTO                                                    00516000
.CNTN    AIF   (NOT &C).CNTO                                            00518000
         ST    &LA(1),0(0,1)                     STORE LA INTO LIST     00520002
.CNTO    AIF   (NOT &D).FINI                                            00522002
         ST    &A(1),4(0,1)                      STORE INTO PARAM LIST  00524002
         AGO   .FINI                                                    00526002
.PROUT   ANOP                                                  @Z30EN9G 00526403
         AIF   ('&SP' EQ '').ERROR8                            @Z30EN9G 00526803
         AIF   ('&BRANCH' EQ '').ERROR8                        @Z30EN9G 00527203
         AGO   .PROUT1                                         @Z30EN9G 00527603
.*       R-FORM GETMAIN (REGMAIN) OR RC OR RU FORMS                     00528002
.RROUT   AIF   ('&A' NE '').ERROR9                                      00534002
         AIF   ('&LV' EQ '').ERROR8                                     00534102
         AIF   (K'&MODE EQ 2).NREGM                                     00534202
&SVCN    SETA  10                                                       00534802
         AIF   ('&LV'(1,1) EQ '(').ISARGA                               00536000
         AIF   ('&SP' EQ '').CTUA                                       00538000
.PROUT1  ANOP                                                  @Z30EN9G 00539003
         AIF   ('&SP'(1,1) EQ '(').ISARGB                               00540000
         CNOP  0,4                                                      00540603
         AIF   ('&MODE' EQ 'P').PMODE                          @Z30EN9G 00541203
&NAME    BAL   1,*+8                             BRANCH AROUND SP+LV    00544000
         DC    AL1(&SP)                          SUBPOOL VALUE          00546000
         DC    AL3(&LV)                          LENGTH                 00548000
         L     0,0(0,1)                          LOAD SP AND LV         00550002
         AGO   .FINI                                                    00552002
.PMODE   ANOP                                                  @Z30EN9G 00553003
&NAME    LA    0,&SP.(0,0)      PICK UP SUBPOOL                @Z30EN9G 00554003
         SLL   0,24(0)          SHIFT TO HIGH-ORDER BYTE       @Z30EN9G 00554503
         BAL   1,*+4            INDICATE GETMAIN               @Z30EN9G 00555003
         AGO   .FINI                                           @Z30EN9G 00556003
.CTUA    AIF   (T'&LV NE 'N').CTUAA                                     00558002
         AIF   (&LV LE 4095).CONTCC                                     00558402
.CTUAA   CNOP  0,4                                                      00560000
&NAME    BAL   1,*+8                             BRANCH AROUND LENGTH   00562000
         DC    A(&LV)                            LENGTH                 00564000
         L     0,0(0,1)                          LOAD LENGTH            00566002
         AGO   .FINI                                                    00570002
.CONTCC  ANOP                                                           00574002
&NAME    LA    0,&LV.(0,0)                       LOAD LENGTH            00576000
         AGO   .NOP2                                                    00582002
.ISARGB  AIF   ('&MODE' EQ 'P').PMODE2                         @Z30EN9G 00584003
         AIF   (T'&LV NE 'N').CONTFF                           @Z30EN9G 00586003
         AIF   (&LV LE 4095).CONTEE                                     00586402
.CONTFF  CNOP  0,4                                                      00588000
&NAME    BAL   1,*+8                             BRANCH AROUND LENGTH   00590000
         DC    A(&LV)                            LENGTH                 00592000
         LR    0,&SP(1)                          PICK UP SUBPOOL        00594000
         SLL   0,24(0)                           SHIFT TO HI-ORDER BYTE 00596000
         O     0,0(0,1)                          PACK SP AND LV         00598002
         AGO   .FINI                                                    00600002
.PMODE2  ANOP                                                  @Z30EN9G 00601003
         AIF   ('&SP(1)' EQ '0').PMODE3                        @Z30EN9G 00601503
&NAME    LR    0,&SP(1)         PICK UP SUBPOOL                @Z30EN9G 00602003
         CNOP  0,4                                             @Z30EN9G 00603003
         SLL   0,24(0)          SHIFT TO HIGH-ORDER BYTE       @Z30EN9G 00603503
         BAL   1,*+4            INDICATE GETMAIN               @Z30EN9G 00604003
         AGO   .FINI                                           @Z30EN9G 00605003
.PMODE3  ANOP                                                  @Z30EN9G 00605103
         CNOP  0,4                                             @Z30EN9G 00605203
&NAME    SLL   0,24(0)          SHIFT SUBPOOL TO HIGH-BYTE     @Z30EN9G 00605303
         BAL   1,*+4            INDICATE GETMAIN               @Z30EN9G 00605403
         AGO   .FINI                                           @Z30EN9G 00605503
.CONTEE  ANOP                                                           00606002
&NAME    LR    0,&SP(1)                          PICK UP SUBPOOL        00608000
         SLL   0,24(0)                           SHIFT TO HI-ORDER BYTE 00610000
         LA    1,&LV.(0,0)                       LOAD LENGTH            00612000
         OR    0,1                               PACK SP AND LV         00614000
         AGO   .NOP2                                                    00620002
.ISARGA  AIF   ('&LV(1)' EQ '0').ZEROUT                                 00624000
         AIF   ('&SP' EQ '').CTUB                                       00626000
         AIF   ('&SP'(1,1) EQ '(').ISARGC                               00628000
&NAME    LA    0,&SP.(0,0)                       PICK UP SUBPOOL        00630000
.NOP1    SLL   0,24(0)                           SHIFT TO HI-ORDER BYTE 00632002
         OR    0,&LV(1)                          PACK SP AND LV         00634000
.NOP2    BAL   1,*+4                             INDICATE GETMAIN       00638002
         AGO   .FINI                                                    00640002
.CTUB    ANOP                                                           00644000
&NAME    LR    0,&LV(1)                          LOAD LENGTH            00646000
         AGO   .NOP2                                                    00652002
.ISARGC  ANOP                                                           00668000
&NAME    LR    0,&SP(1)                          PICK UP SUBPOOL        00670000
         AGO   .NOP1                                                    00672002
.ZEROUT  AIF   ('&SP' NE '').ERROR0                                     00682002
&NAME    BAL   1,*+4                             INDICATE GETMAIN       00682402
         AGO   .FINI                                                    00682802
.NREGM   ANOP    RC AND RU FORMS OF GETMAIN                             00683202
&SVCN    SETA  120                                                      00684002
&UNCND   SETB  ('&MODE' EQ 'RU')  CONDITIONAL REQUEST FLAG              00686002
         AIF   (NOT &BR).COND     CHECK FOR BRANCH ENTRY TO GETMAIN     00686302
&PRG     SETA  3                  SET PARAMETER REG FOR BRANCH ENTRY    00686402
.COND    AIF   ('&SP' EQ '').CREG1                                      00690002
&SPREG   SETB  ('&SP'(1,1) EQ '(')                                      00690402
.CREG1   AIF   ('&KEY' EQ '').CREG01                                    00690802
&KEYRG   SETB  ('&KEY'(1,1) EQ '(')                                     00691202
.CREG01  ANOP                                                           00691302
&LVREG   SETB  ('&LV'(1,1) EQ '(')                                      00691602
&B       SETB  (&SPREG AND &KEYRG)                                      00691702
         CNOP  0,4                                                      00691802
&NAME    B     *+12-4*&LVREG-2*&B                BRANCH AROUND DATA     00691902
         AIF   (&LVREG).CREG11                                          00701502
         DC    A(&LV)                            LENGTH                 00701802
.CREG11  ANOP                                                           00703802
&GNAME.F DC    AL1(0)                            RESERVED               00704502
         AIF   ('&KEY' EQ '').CREG1A             KEY OMITTED ?          00705302
         AIF   (&KEYRG).CREG1B                   KEY IN REGISTER?       00706803
         DC    AL1(&KEY*16)                      STORAGE KEY            00706902
         AGO   .CREG1B                                                  00709602
.CREG1A  DC    AL1(0)                            RESERVED               00711902
.CREG1B  AIF   ('&SP' EQ '').SPNULL1             SUBPOOL OMITTED?       00712002
         AIF   (&SPREG).CREG1C                   SUBPOOL IN REGISTER?   00712203
         DC    AL1(&SP)                          SUBPOOL                00722602
         AGO   .CREG1C                                                  00725202
.CREG1E  AIF   ('&LV(1)' EQ '0').CREG1D                        @ZA07133 00725804
         LR    0,&LV(1)                          LOAD LENGTH   @ZA07133 00726404
         AGO   .CREG1D                                         @ZA07133 00727004
.SPNULL1 DC    AL1(0)                            SUBPOOL                00727802
.CREG1C  DC    BL1'00000&BND&UNCND.0'            MODE BYTE              00730402
         AIF   (&LVREG).CREG1E                                 @ZA07133 00732204
         L     0,*-8+2*&B                        LOAD LENGTH            00733002
.CREG1D  AIF   (&KEYRG OR &SPREG).KORSREG                               00783002
.*       NEITHER KEY OR SP IS A REGISTER.                               00786502
         L     &PRG.,&GNAME.F                    LOAD GETMAIN PARMS     00788502
         AGO   .LVCHK                                                   00790502
.*       EITHER KEY OR SP IS A REGISTER.                                00792502
.KORSREG AIF   (&KEYRG AND &SPREG).BOTHREG                              00792602
.*       ONLY ONE OF THEM IS A REGISTER                                 00792702
         AIF   (NOT &SPREG).KEYREG                                      00793002
.*       ONLY SP IS A REGISTER                                          00793402
         AIF   ('&SP(1)' EQ '&PRG').SPINPRG                             00793502
.*       SP IS NOT IN THE PREFERRED PARM REG.                           00793602
         LR    &PRG.,&SP(1)                      OBTAIN SUBPOOL ID      00793702
.SPINPRG SLL   &PRG.,8(0)                 MOVE SUBPOOL TO BYTE 2 YM1995 00794502
         ICM   &PRG.,13,&GNAME.F                 ADD REMAINING PARMS    00794902
         AGO   .LVCHK                                                   00795302
.* ONLY KEY IS A REGISTER                                               00795702
.KEYREG  AIF   ('&KEY(1)' EQ '&PRG').KYINPRG                            00795802
.*       KEY IS NOT IN THE PREFERRED REGISTER                           00795902
         LR    &PRG.,&KEY(1)                     GET STORAGE KEY        00796002
.KYINPRG SLL   &PRG.,16(0)                   SHIFT KEY TO BYTE 1 YM1995 00796802
         ICM   &PRG.,11,&GNAME.F                 ADD REMAINING PARMS    00797202
         AGO      .LVCHK                                                00798102
.*       BOTH KEY AND SP ARE IN REGISTERS                               00798202
.BOTHREG AIF   ('&KEY(1)' NE '&SP(1)').NOTSAME                          00798302
.*       BOTH KEY AND SP ARE IN THE SAME REGISTER.                      00801002
         AIF   ('&KEY(1)' EQ '&PRG').BOTHPRG                            00801402
.*       THE COMMON REGISTER IS NOT THE PREFERRED PARM REGISTER.        00801502
         LR    &PRG.,&KEY(1)                     GET STORAGE KEY        00801802
.BOTHPRG ICM   &PRG.,9,&GNAME.F                  ADD REMAINING PARMS    00802202
         AGO   .LVCHK                                                   00802502
.* BOTH ARE IN REGISTERS, BUT THEY ARE DIFFERENT REGISTERS.             00802902
.NOTSAME AIF   ('&KEY(1)' EQ '&PRG' OR '&SP(1)' EQ '&PRG').PRGIS1       00803002
.*       NEITHER REGISTER IS THE PREFERRED PARM REGISTER.               00805002
         LR    &PRG.,&KEY(1)                     GET STORAGE KEY        00807002
.ADDSP   SLL   &PRG.,8(0)                  SHIFT KEY OVER FOR SP YM1995 00807402
         OR    &PRG.,&SP(1)                      ADD SUBPOOL NUMBER     00807802
         SLL   &PRG.,8(0)                 MOVE PAIR TO BYTES 1-2 YM1995 00807902
         AGO   .BOTHPRG                                                 00808002
.PRGIS1  AIF   ('&KEY(1)' EQ '&PRG').ADDSP                              00808102
.*       SP IN IN THE PREFERRED PARM REGISTER.                          00808202
         SLL   &PRG.,8(0)                 MOVE SUBPOOL TO BYTE 2 YM1995 00808302
         SLL   &KEY(1),16(0)                 SHIFT KEY TO BYTE 1 YM1995 00808902
         OR    &PRG.,&KEY(1)                     COMBINE KEY & SP       00809602
         AGO   .BOTHPRG                                                 00810002
.LVCHK   ANOP                                                  @ZA07133 00810404
.FINI    AIF   ('&MODE' NE 'RC' AND '&MODE' NE 'RU').FINI1              00814002
         SR    1,1                               ZERO RESERVED REG 1    00814402
.FINI1   AIF   (&BR).SETBE                    TEST FOR BRANCH=YES       00816002
         SVC   &SVCN                             ISSUE GETMAIN SVC      00820002
         MEXIT                                                          00824002
.SETBE   L     15,CVTPTR(0,0)                    LOAD THE CVT ADDRESS   00828002
         AIF   ('&MODE' EQ 'P').CBBE                           @Z30EN9G 00830003
         AIF   (&SVCN EQ 120).CRBE                                      00832002
         AIF   (&SVCN EQ 10).RMBE                                       00840002
         L     15,CVTGMBR-CVTMAP(0,15)           GETMAIN ENTRY ADDRESS  00844002
         AGO   .SBE                                                     00848002
.CBBE    ANOP                                                  @Z30EN9G 00849003
         L     15,CVTCBBR-CVTMAP(0,15)  GETMAIN ENTRY ADDRESS  @Z30EN9G 00850003
         AGO   .SBE                                            @Z30EN9G 00851003
.RMBE    L     15,CVTRMBR-CVTMAP(0,15)           GETMAIN ENTRY ADDRESS  00852002
         AGO   .SBE                                                     00856002
.CRBE    AIF   (&GLBR).GLBE   GLOBAL BRANCH ENTRY?                      00860002
         L     15,CVTCRMN-CVTMAP(0,15)           GETMAIN ENTRY ADDRESS  00864002
         AGO   .SBE                                                     00868002
.GLBE    L     4,CVTSPSA-CVTMAP(0,15)            SAVE AREA VECTOR       00872002
         L     4,WSAGGMFM-WSAG(0,4)              GLOBAL SAVE AREA ADDR  00876002
         L     15,CVTGLMN-CVTMAP(0,15)           GLBRANCH ENTRY ADDR    00880002
.SBE     BALR  14,15                             BRANCH TO GETMAIN      00884002
         MEXIT                                                          00888002
.ERROR0  IHBERMAC 92                                                    00892002
         MEXIT                                                          00896002
.ERROR1  IHBERMAC 17                                                    00900002
         MEXIT                                                          00950002
.ERROR2  IHBERMAC 1001,MF,&MF                                           01000002
         MEXIT                                                          01050002
.ERROR3  IHBERMAC 69                                                    01100002
         MEXIT                                                          01150002
.ERROR4  IHBERMAC 89                                                    01200002
         MEXIT                                                          01250002
.ERROR5  IHBERMAC 91                                                    01300002
         MEXIT                                                          01350002
.ERROR6  IHBERMAC 90                                                    01400002
         MEXIT                                                          01450002
.ERROR7  IHBERMAC 1001,MODE,&MODE                                       01500002
         MEXIT                                                          01550002
.ERROR8  IHBERMAC 01                                                    01600002
         MEXIT                                                          01650002
.ERROR9  IHBERMAC 93                                                    01700002
         MEXIT                                                          01750002