         MACRO                                                          03000020
&NAME    HANGUP                                                         06000020
         GBLA  &IEDQZE(64)                                              09000020
         GBLB  &IEDQZA(64)                                              12000020
         LCLA  &ALG,&BIT,&LEN                                           15000020
         LCLB  &NOGO                                                    18000020
.*             VERSION DATED MAY 22,1970                                21000020
         SPACE                                                          24000020
         AIF   (&IEDQZA(9)).H1 .   HANGUP FOR TSO ONLY                  27000020
         MNOTE 12,'*** IHB312 - MACRO MUST FOLLOW STARTMH MACRO WITH   *30000020
                TSOMH=YES.'                                             33000020
&NOGO    SETB  1                                                        36000020
.H1      AIF   (&IEDQZA(5)).CKERR                                       39000020
         MNOTE 12,'*** IHB070 - SEQUENCE ERROR-MUST FOLLOW INMSG OR    *42000020
                OUTMSG MACRO.'                                          45000020
&NOGO    SETB  1                                                        48000020
.CKERR   AIF   (&NOGO).MEND                                             51000020
&LEN     SETA  8                                                        54000020
&BIT     SETA  1                                                        57000020
.SKP     IEDQVCON 37,IEDAYX .      INMSG/OUTMSG INTERFACE               60000020
&NAME    DC    AL1(&IEDQZE(37)+&BIT),AL1(&LEN),X'0000'                  63000020
         DC    V(IEDAYH)                                                66000020
.MEND    SPACE                                                          69000020
         MEND                                                           72000020
