         MACRO                                                          00050002
&NAME    HOOK  &EID=,&TYPE=                                             00100002
         GBLB  &HOOKSW                                                  00150002
         GBLB  &TEMPSW                                                  00200002
.*A000000-999999                                                 Y01014 00250002
.*A021500,024440,C019500,C044500,C045000                         Y02014 00260002
.*A028100,044100-044900,041100,C028000,041000                    Y02014 00270002
.*C013500,024200,D015500-020500,024500,024400,024500-026000      Y02014 00280002
.* DETERMINE THE TYPE OF HOOK                                           00300002
         AIF   ('&EID' NE '').TYPECHK                                   00350002
         MNOTE 8,'AHL052  INSUFFICIENT KEYWORD PARAMETERS.'             00400002
         MEXIT                                                          00450002
.TYPECHK ANOP                                                           00500002
         AIF   ('&TYPE' EQ '').PMPMAP                                   00550002
         AIF   ('&TYPE' NE 'P' AND '&TYPE' NE 'BP' AND '&TYPE' NE      X00600002
               'BPN' AND '&TYPE' NE 'BPN2').TMP                @G64RP2H 00610064
.PMPMAP  ANOP                                                           00650002
.********************************************************************** 00700002
.*  THE FOLLOWING LOGIC DETERMINES WHICH MAPPING MACRO SHOULD BE CALLED 00750002
.*  WHEN A NEW MAPPING MACRO IS ADDED, THIS PORTION MUST BE UPDATED TO  00800002
.*  CALL THE NEW MACRO.                                                 00850002
.********************************************************************** 00900002
.IEACHEK ANOP                                                           00950002
         AIF   ('&EID'(1,3) EQ 'IEA').IEA                               01000002
         AGO   .IECCHEK                                                 01050002
.IEA     ANOP                                                           01100002
         IEAPMP                                                         01150002
         AGO   .BRCHK                                                   01200002
.IECCHEK ANOP                                                           01250002
         AIF   ('&EID'(1,3) EQ 'IEC').IEC                               01300002
         AGO   .IRACHEK                                                 01350002
.IEC     ANOP                                                           01400002
         IECPMP                                                         01450002
         AGO   .BRCHK                                                   01500002
.IRACHEK ANOP                                                           02150002
         AIF   ('&EID'(1,3) EQ 'IRA').IRA                               02200002
         AGO   .ISPCHEK                                                 02250002
.IRA     ANOP                                                           02300002
         IRAPMP                                                         02350002
         AGO   .BRCHK                                                   02400002
.ISPCHEK ANOP                                                           02410002
         AIF   ('&EID'(1,3) NE 'ISP').INVEID                            02420002
         ISPPMP                                                         02442002
         AGO   .BRCHK                                                   02444002
.********************************************************************** 02650002
.********************************************************************** 02700002
.TMP     ANOP                                                           02750002
         AIF   ('&TYPE' EQ 'T' OR '&TYPE' EQ 'BT' OR '&TYPE' EQ        X02800002
               'BTN').HKSWCHK                                           02810002
  MNOTE 8,'AHL053  INVALID TYPE= KEYWORD.'                              02850002
         MEXIT                                                          02900002
.HKSWCHK ANOP                                                           02950002
         AIF   (&HOOKSW).TEMPEID                                        03000002
         AIF   ('&NAME' EQ '').NONAME                                   03050002
&NAME    EQU   *                                                        03100002
.NONAME  ANOP                                                           03150002
         MEXIT                                                          03200002
.********************************************************************** 03250002
.*  THE FOLLOWING DETERMINES IF THE TEMPORARY MAPPING MACRO MUST        03300002
.*  BE CALLED.                                                          03350002
.********************************************************************** 03400002
.TEMPEID ANOP                                                           03450002
         AIF   ('&EID'(1,3) EQ 'TMP').T10                               03500002
         AGO   .INVEID                                                  03550002
.T10     ANOP                                                           03600002
         AIF   (&TEMPSW).BRCHK                                          03650002
         TMPEID                                                         03700002
&TEMPSW  SETB  1                                                        03750002
         AGO   .BRCHK                                                   03800002
.INVEID  ANOP                                                           03850002
         MNOTE 8,'AHL055  INVALID EID= KEYWORD.'                        03900002
         MEXIT                                                          03950002
.BRCHK   ANOP                                                           04000002
.* GENERATE BRANCH OR PERMANENT HOOK                                    04050002
         AIF   ('&TYPE' EQ 'BP' OR '&TYPE' EQ 'BT' OR '&TYPE' EQ 'BTN' X04100002
               OR '&TYPE' EQ 'BPN' OR '&TYPE' EQ 'BPN2').GENBR @G64RP2H 04110064
&NAME    DC    XL1'AF',AL3(&EID)   MC INSTRUCTION                       04150002
         MEXIT                                                          04200002
.GENBR   ANOP                                                           04250002
*                                                                       04300002
* SPECIAL BRANCH HOOK GENERATED BY THE HOOK MACRO                       04350002
*                                                                       04400002
         AIF   ('&TYPE' EQ 'BPN' OR '&TYPE' EQ 'BTN').CON1              04410002
         AIF   ('&TYPE' EQ 'BPN2').CONMCH                      @G64RP2H 04430064
&NAME    L     15,IEACON1          RESIDENT RTN E.P.S                   04450002
         AGO   .BRANCH                                                  04460002
.CON1    ANOP                                                           04470002
&NAME    L     15,IEACON2          RESIDENT RTN E.P.S                   04480002
         AGO   .BRANCH                                         @G64RP2H 04481064
.CONMCH  ANOP                                                  @G64RP2H 04482064
&NAME    L 15,16(0)                GET CVT PTR                 @G64RP2H 04483064
         L 15,CVTGTF(15)           GET MCHEAD PTR              @G64RP2H 04484064
         L 15,MCHMCIHC(15)         GET MCIHC  PTR              @G64RP2H 04485064
.BRANCH  ANOP                                                           04490002
         BALR  14,15               BRANCH HOOK                          04500002
         DC    XL1'47',AL3(&EID)   NOP TO CARRY EID                     04550002
         MEND                                                           04600002
