*%/*                                                                    00060002
         MACRO                                                          00070002
&NAME    IDENTIFY &EP=,&EPLOC=,&ENTRY=,&MF=I                      20008 00100002
         AIF   ('&MF(1)' EQ 'E').MAJOR                            20008 00150002
         AIF   ('&ENTRY' EQ '').E2                                      00200002
         AIF   ('&EP' NE '').PROCEP                                     00250002
         AIF   ('&EPLOC' EQ '').E1                                      00300002
&NAME    IHBINNRA &ENTRY,&EPLOC             LOAD REG1 AND REG0          00350002
         AGO   .SVC                                                     00400002
.PROCEP  ANOP                                                           00450002
&NAME    BAL   0,*+12                            LOAD EP SYMBOL ADDR    00500002
         DC    CL8'&EP'                          EP SYMBOL              00550002
         IHBINNRA &ENTRY                    LOAD REG 0                  00600002
         AGO   .SVC                                               20008 00650002
.MAJOR   ANOP                                                     20008 00700002
&NAME    IHBINNRA &MF(2)     LOAD REG 1                           20008 00750002
         SR    0,0           ZERO REG 0                           20008 00800002
.SVC     SVC   41                                ISSUE IDENTIFY SVC     00850002
         MEXIT                                                          00900002
.E1      IHBERMAC 01,339                    EP AND EPLOC MISSING        00950002
         MEXIT                                                          01000002
.E2      IHBERMAC 27,339                    ENTRY PT. ADDR MISSING      01050002
.END     MEND                                                           01100002
**/                                                                     01150002
*IDENTIFY: MACRO                                                        01200002
*        KEYS(EP,ENTRY);                                                01250002
*        ANS('?'||MACLABEL||'IDENTFYP '||MACLIST||MACKEYS||';');        01300002
*%END;                                                                  01350002
