         MACRO                                                          00050001
&NAME    IEAVBK &HOURS=,&MINUTES=,&FLAG=,&CTLFLGS=,&RPS=,&ACR=,        *00100040
               &WARN=,&STORAGE=                                         00100640
.* CHANGE LEVEL = 11/19/74                                     @ZA02383 00102740
.*              = 12/12/74                                     @YM30488 00103340
.*              = 12/12/75                                     @Z404PXG 00104340
.*              = 12/12/75                                     @Z40FPXG 00105340
.*              = 05/08/75                            @Z40WPSM,@Z40WPSF 00106640
.*              = 11/05/75                                     @Z40WPXG 00106840
.*              = 12/19/77                                     @G64RP2R 00107064
.*              = 08/03/78                                     @G64UPXR 00107164
.*              = 08/30/78                                     @ZA16888 00107264
.*              = 10/04/78                                     @ZM49479 00107364
.*              = 06/15/82                                     @ZA63149 00107403
.*                                                                      00107503
.* CHANGE = YM06241,M03590,R21170,M01886,M01513,M01525,R21055,          00107664
.*          R20690,YM30488,G64RP2R                                      00107964
.*          OZ63149 - INTEGRITY                                @ZA63149 00108503
.*                                                                      00109140
         LCLA  &CVTTZ,&CARRYHA,&CARRYMA,&CARRY,&HOURS2,&MINUTE2         00176503
         LCLA &A,&B,&N                                                  00182503
         LCLC  &OURS,&MINS,&CARRYHC,&CARRYMC,&PSW,&SCBPARM              00188540
         LCLC  &PGM,&WAITCT,&SQEFLGS,&TASK,&GENREG(16)           Y02952 00200002
         LCLC  &ALIAS,&RQUEUE,&SISTER,&ORIGIN,&SEXIT,&SCBNUM            00250001
         LCLC  &NEG,&CVTTZC,&TASKID,&TCBBACK                            00260001
         LCLC  &TCBLTC,&RBLABEL,&RSMASCB,&TCBFLG4                Y02952 00310002
         LCLC  &TCBFLG5,&TCBFLG6,&TCBFLG7,&TCBFLG3,&TCBLMP,&TCBDSP      00330040
         LCLC  &SIRBLAB,&ASCBNAM,&ASCBFWD,&ASCBBWD,&ASCBLOC      Y02752 00360002
         LCLC  &ASCBCPU,&ASCBID,&ASCBSEQ,&ASCBDP,&ASCBRSM        Y02752 00370002
         LCLC  &ASCBDS1,&ASCBTCB,&ASXBNAM,&ASXBFTC,&ASXBLTC      Y02752 00380002
         LCLC  &ASXBIHS,&ASXBFRW,&ASXBSPS,&ASXBSIR,&ASXBTSK      Y02752 00390002
         LCLC  &ASCBSPL,&ASCBASX,&ASXBTCB,&ASCBFL2,&ASCBJNS      Y02752 00392002
         LCLC  &ASXBOSB                                          Y02133 00394002
         LCLC  &ASCBPSW                                        @G64RP2R 00394264
         LCLC  &SPLNAME,&ASCBOUB,&ASCBOXB,&ASCBRSF             @ZA16888 00394564
         LCLC  &ASCBFL1,&ASCBAFF,&ASCB,&ASXB                            00395540
.*  RB MAPPING MACRO                                             R20781 00396002
         IHARB                                                   R20781 00398002
         EJECT                                                  YM06241 00398102
.*  SPL DSECT                                                   YM06241 00405102
         IHASPL                                                 YM06241 00412102
         EJECT                                                  YM06241 00419102
.*  TCB MAPPING MACRO                                                   00428440
         IKJTCB SYS=AOS2,LIST=YES                                       00431440
         EJECT                                                          00434440
.*  STAE CONTROL BLOCK MAPPING MACRO                                    00437440
         IHASCB                                                         00440440
         EJECT                                                          00443440
.*  ASXB MAPPING MACRO                                                  00446440
         IHAASXB                                                        00449440
         EJECT                                                          00452440
.*  ASCB MAPPING MACRO                                                  00455440
         IHAASCB                                                        00458440
         EJECT                                                          00461440
.*  RSM MAPPING MACRO                                                   00476440
         IHARSMHD                                                       00479440
         EJECT                                                          00482440
IEAVBK00 CSECT                                                          00485440
         DC    CL8'IEAVBK00'                                     Y02952 00488402
         DC    CL8'10/04/78'                                   @ZM49479 00518464
*        ENTRY POINTS FOR MASTER MEMORY TCBS                     Y02952 00548402
         ENTRY IEADSTCB                                                 00600001
         ENTRY IEECVTCB                                                 00650002
         ENTRY IEAMSTCB                                                 00750001
.*                                                                      00750402
*        ENTRY POINTS FOR WAIT MEMORY TCB                        Y02952 00758402
         ENTRY IEAWTCB                                           Y02952 00759202
         ENTRY WAITTCB                                           Y02952 00759602
.*                                                               Y02952 00759702
*        ENTRY POINTS FOR REQUEST BLOCKS                         Y02952 00759802
         ENTRY IEAMPRB                                           Y02952 00759902
         ENTRY IEADSPRB                                          Y02952 00783202
         ENTRY IEACVPRB                                          Y02952 00785202
         ENTRY IEAWPRB                                           Y02952 00786402
         ENTRY IEAMSIRB                                          R20781 00788602
.*                                                               Y02952 00791102
*        ENTRY POINTS FOR ASCB                                   Y02752 00793302
         ENTRY IEAMASCB                                          Y02752 00795502
         ENTRY IEAWASCB                                          Y02752 00799902
.*                                                               Y02952 00802102
* DOUBLE WORD SIZE OF VARIOUS CONTROL BLOCKS                            00807140
DWASCB   EQU   (ASCBEND+7-ASCB)/8                                       00812140
DWASXB   EQU   (ASXBEND+7-ASXB)/8                                       00817140
DWTCB    EQU   (TCBLEN+7)/8                                             00822140
.*       LOCAL CONSTANTS                                                00830502
&GENREG(1)     SETC '0'                                                 01002001
&GENREG(2)     SETC '0'                                                 01004001
&GENREG(3)     SETC '0'                                                 01006001
&GENREG(4)     SETC '0'                                                 01008001
&GENREG(5)     SETC '0'                                                 01008401
&GENREG(6)     SETC '0'                                                 01008801
&GENREG(7)     SETC '0'                                                 01009201
&GENREG(8)     SETC '0'                                                 01009601
&GENREG(9)     SETC '0'                                                 01009701
&GENREG(10)    SETC '0'                                                 01009801
&GENREG(11)    SETC '0'                                                 01009901
&GENREG(12)    SETC '0'                                                 01023201
&GENREG(13)    SETC '0'                                                 01033201
&GENREG(14)    SETC '0'                                                 01035201
&GENREG(15)    SETC '0'                                                 01035601
&GENREG(16)    SETC '0'                                                 01036001
&SCBPARM SETC  '0'                                                      01036401
         EJECT                                                          01036701
.*                                                                      01037102
.*       MASTER MEMORY'S ASCB, ASXB, AND RSM BLOCK VARIABLES     Y02752 01037502
&ASCBNAM SETC  'IEAMASCB'                                        Y02752 01037902
&ASCBFWD SETC  '0'                                             @Z40WPSF 01038340
&ASCBBWD SETC  '0'                                               Y02752 01039140
&ASCBLOC SETC  '00000000'                                        Y02752 01039240
&ASCBSPL SETC  'IEAMSPL'                                         Y02752 01039340
&ASCBCPU SETC  '1'                                               Y02752 01039440
&ASCBID  SETC  '0001'                                            Y02752 01039540
&ASCBSEQ SETC  '0001'                                            Y02752 01039640
&ASCBDP  SETC  'FF'                                              Y02752 01039702
&ASCBASX SETC  'IEAMASXB'                                        Y02752 01040102
&ASCBDS1 SETC  '00'                                              Y02752 01040502
&ASCBFL1 SETC  '81'                                                     01040640
&ASCBFL2 SETC  'C0'                                              Y02752 01041740
&ASCBTCB SETC  '1'                                               Y02752 01044040
&ASCBRSM SETC  'RSMHD1'                                          Y02752 01044840
&ASCBAFF SETC  'FFFF'                                                   01045640
&ASCBOUB SETC  'OUCBMSTR'                                      @Z40WPXG 01045840
&ASCBOXB SETC  'OUXBMSTR'                                      @Z40WPXG 01046040
&ASCBJNS SETC  'MSJBNM'                                          Y02752 01046440
&ASCBPSW SETC  '07'                                            @G64RP2R 01046864
&ASCBRSF SETC  '40'                                            @ZA16888 01047064
&ASXBNAM SETC  'IEAMASXB'                                        Y02752 01047240
&ASXBFTC SETC  'IEAMSTCB'                                        Y02752 01048040
&ASXBLTC SETC  'IEECVTCB'                                        Y02752 01048840
&ASXBTCB SETC  '0003'                                            Y02752 01050040
&ASXBIHS SETC  'IEAMIHSA'                                        Y02752 01050940
&ASXBFRW SETC  'IEAMFRWA'                                        Y02752 01051840
&ASXBSPS SETC  'IEAMSPSA'                                        Y02752 01052740
&ASXBSIR SETC  'IEAMSIRB'                                        Y02752 01053640
&ASXBTSK SETC  'IEAMSTCB'                                        Y02752 01054540
&ASXBOSB SETC  'OUSBMSTR'                                        Y02133 01055440
&RSMASCB SETC  'IEAMASCB'                                        Y02752 01056340
&SPLNAME SETC  'IEAMSPL'                                        YM06241 01057240
.*                                                               Y02952 01058140
.*       MASTER SCHEDULER'S TASK'S CONTROL BLOCK VARIABLES       Y02952 01059040
*        MASTER SCHEDULER'S TASK'S CONTROL BLOCKS                Y02952 01060002
&PGM     SETC  '0'                                               Y02952 01100002
&PSW     SETC  '040C0000'                                        Y02952 01110002
&RQUEUE  SETC  'IEADSTCB'                                        Y02952 01150002
&SCBNUM  SETC  '0'                                               Y02702 01200002
&SEXIT   SETC  '0'                                               Y02702 01250002
&SISTER  SETC  '0'                                               Y02952 01300002
&TCBBACK SETC  '0'                                               Y02952 01302002
&TASK    SETC  'IEAMSTCB'                                        Y02952 01350002
&TASKID  SETC  'FB'                                              Y02952 01360002
&ORIGIN  SETC  '0'                                               Y02952 01380002
&WAITCT  SETC  '00'                                              Y02952 01390002
&ALIAS   SETC  ''                                                Y02952 01394002
&TCBLTC  SETC  'IEADSTCB'                                        Y02952 01396002
&RBLABEL SETC  'IEAMPRB'                                         Y02952 01398002
&TCBFLG6 SETC  '80'                                                     01398440
&TCBFLG7 SETC  '04'                                                     01398640
&TCBFLG3 SETC  '80'                                                     01398840
&TCBFLG4 SETC  '00'                                                     01399040
&TCBFLG5 SETC  '00'                                                     01399240
&TCBLMP  SETC  'FF'                                                     01399440
&TCBDSP  SETC  'FF'                                                     01399640
&N       SETA  1                                                        01400001
.BUILDA  ANOP                                                    Y02952 01450002
*        ASCB AND ASXB FOR MEMORY                                Y02752 01450402
.*                                                               Y02752 01450802
         DS    0D                                                       01455840
ASCB&N   EQU   *                                                        01460840
&ASCBNAM DS   0D                                                        01460940
         DC    (DWASCB)D'0'                                             01465940
         ORG   ASCB&N                                                   01471140
         DC    CL4'ASCB'                                                01474940
         ORG   ASCB&N+(ASCBFWDP-ASCB)                                   01476940
         DC    A(&ASCBFWD)                                              01477040
         ORG   ASCB&N+(ASCBBWDP-ASCB)                                   01477140
         DC    A(&ASCBBWD)                                              01477240
         ORG   ASCB&N+(ASCBLOCK-ASCB)                                   01478240
         DC    X'&ASCBLOC'                                              01480540
         ORG   ASCB&N+(ASCBSPL-ASCB)                                    01480840
         DC    A(&ASCBSPL)                                              01481140
         ORG   ASCB&N+(ASCBCPUS-ASCB)                                   01481440
         DC    F'&ASCBCPU'                                              01481740
         ORG   ASCB&N+(ASCBASID-ASCB)                                   01482040
         DC    X'&ASCBID'                                               01482340
         ORG   ASCB&N+(ASCBSEQN-ASCB)                                   01482640
         DC    X'&ASCBSEQ'                                              01482940
         ORG   ASCB&N+(ASCBDP-ASCB)                                     01483240
         DC    X'&ASCBDP'                                               01483540
         ORG   ASCB&N+(ASCBRSM-ASCB)                                    01484140
         DC    A(&ASCBRSM)                                              01484340
         ORG   ASCB&N+(ASCBAFFN-ASCB)                                   01484540
         DC    X'&ASCBAFF'                                              01484740
         ORG   ASCB&N+(ASCBFLG1-ASCB)                                   01485040
         DC    X'&ASCBFL1'                                              01485140
         ORG   ASCB&N+(ASCBASXB-ASCB)                                   01485240
         DC    A(&ASCBASX)                                              01485340
         ORG   ASCB&N+(ASCBDSP1-ASCB)                                   01485440
         DC    X'&ASCBDS1'                                              01485540
         ORG   ASCB&N+(ASCBFLG2-ASCB)                                   01485640
         DC    X'&ASCBFL2'                                              01485740
         ORG   ASCB&N+(ASCBTCBS-ASCB)                                   01485840
         DC    F'&ASCBTCB'                                              01485940
         ORG   ASCB&N+(ASCBOUCB-ASCB)                          @Z40WPXG 01486240
         DC    A(&ASCBOUB)                                     @Z40WPXG 01486540
         ORG   ASCB&N+(ASCBOUXB-ASCB)                          @Z40WPXG 01486640
         DC    A(&ASCBOXB)                                     @Z40WPXG 01486740
         ORG   ASCB&N+(ASCBJBNS-ASCB)                          @Z40WPXG 01486840
         DC    A(&ASCBJNS)                                              01487140
         ORG   ASCB&N+(ASCBRSMF-ASCB)                          @ZA16888 01487264
         DC    X'&ASCBRSF'                                     @ZA16888 01487364
         ORG   ASCB&N+(ASCBSRBM-ASCB)                          @G64RP2R 01487464
         DC    X'&ASCBPSW'                                     @G64RP2R 01487564
.*                                                              YM06241 01487764
         ORG                                                            01487864
         SPACE 3                                               @ZA02383 01487964
.* SPL FOR MEMORY                                               YM06241 01488064
.*   THE SPL MUST IMMEDIATELY FOLLOW THE ASCB DUE TO CODE       YM06241 01488164
.*   IN IEAVECBV WHICH VERIFIES THE SPL ADDRESS FOR             YM06241 01488264
.*   SUPERVISOR RECOVERY                                        YM06241 01488340
.*                                                              YM06241 01488640
&SPLNAME DC    XL(LSPLSIZE)'00'                                 YM06241 01489540
         EJECT                                                          01489940
         AIF   (&N EQ 6).BUILD1   NO ASXB FOR WAIT                      01490440
         EJECT                                                 @ZA02383 01491340
.*                                                               Y02752 01492240
         DS    0D                                                       01494040
ASXB&N   EQU   *                                                        01504040
&ASXBNAM DS    0D                                                       01514040
         DC    (DWASXB)D'0'                                             01546140
         ORG   ASXB&N                                                   01548140
         DC    CL4'ASXB'                                                01552140
         ORG   ASXB&N+(ASXBFTCB-ASXB)                                   01554140
         DC    A(&ASXBFTC)                                              01556140
         ORG   ASXB&N+(ASXBLTCB-ASXB)                                   01558140
         DC    A(&ASXBLTC)                                              01560140
         ORG   ASXB&N+(ASXBTCBS-ASXB)                                   01562140
         DC    X'&ASXBTCB'                                              01564140
         ORG   ASXB&N+(ASXBIHSA-ASXB)                                   01566140
         DC    A(&ASXBIHS)                                              01568140
         ORG   ASXB&N+(ASXBFRWA-ASXB)                                   01570140
         DC    A(&ASXBFRW)                                              01572140
         ORG   ASXB&N+(ASXBSPSA-ASXB)                                   01574140
         DC    A(&ASXBSPS)                                              01576140
         ORG   ASXB&N+(ASXBOUSB-ASXB)                                   01578140
         DC    A(&ASXBOSB)                                              01580140
         ORG   ASXB&N+(ASXBPRG-ASXB)                                    01580540
         DC    CL16' '                                                  01580940
         ORG   ASXB&N+(ASXBPSWD-ASXB)                                   01581340
         DC    CL8' '                                                   01581740
         ORG   ASXB&N+(ASXBSIRB-ASXB)                                   01582140
         DC    A(&ASXBSIR)                                              01584140
         ORG   ASXB&N+(ASXBETSK-ASXB)                                   01586140
         DC    A(&ASXBTSK)                                              01588140
         ORG                                                            01593140
         EJECT                                                          01601140
.BUILD1  ANOP                                                    Y02752 01610040
*        TCB FOR TASK                                            Y02752 01620040
         ORG                                                            01650040
PREFIX&N DS    0D                                                       01700040
         DC    (DWTCB)D'0'                                              01750040
         ORG   PREFIX&N+(TCB-TCBFIX)                                    01800040
&ALIAS   DS    0D                                                       01850040
&TASK    DC    A(RB&N)                                                  01900040
.BUILD2  ANOP                                                           01950040
         ORG   &TASK+(TCBFLGS3-TCB)                                     02000040
         DC    X'&TCBFLG3'                                              02050040
         ORG   &TASK+(TCBFLGS4-TCB)                                     02100040
         DC    X'&TCBFLG4'                                              02150040
         ORG   &TASK+(TCBFLGS5-TCB)                                     02200040
         DC    X'&TCBFLG5'                                              02250040
         ORG   &TASK+(TCBLMP-TCB)                                       02300040
         DC    X'&TCBLMP'                                               02350040
         ORG   &TASK+(TCBDSP-TCB)                                       02400040
         DC    X'&TCBDSP'                                               02450040
         ORG   &TASK+(TCBGRS0-TCB)                                      02500040
         DC    A(&GENREG(1))                                            02550040
         ORG   &TASK+(TCBGRS1-TCB)                                      02600040
         DC    A(&GENREG(2))                                            02650040
         ORG   &TASK+(TCBGRS2-TCB)                                      02700040
         DC    A(&GENREG(3))                                            02750040
         ORG   &TASK+(TCBGRS3-TCB)                                      02800040
         DC    A(&GENREG(4))                                            02850040
         ORG   &TASK+(TCBGRS4-TCB)                                      02900040
         DC    A(&GENREG(5))                                            02950040
         ORG   &TASK+(TCBGRS5-TCB)                                      03000040
         DC    A(&GENREG(6))                                            03050040
         ORG   &TASK+(TCBGRS6-TCB)                                      03100040
         DC    A(&GENREG(7))                                            03150040
         ORG   &TASK+(TCBGRS7-TCB)                                      03200040
         DC    A(&GENREG(8))                                            03250040
         ORG   &TASK+(TCBGRS8-TCB)                                      03300040
         DC    A(&GENREG(9))                                            03350040
         ORG   &TASK+(TCBGRS9-TCB)                                      03400040
         DC    A(&GENREG(10))                                           03450040
         ORG   &TASK+(TCBGRS10-TCB)                                     03500040
         DC    A(&GENREG(11))                                           03550040
         ORG   &TASK+(TCBGRS11-TCB)                                     03600040
         DC    A(&GENREG(12))                                           03650040
         ORG   &TASK+(TCBGRS12-TCB)                                     03700040
         DC    A(&GENREG(13))                                           03750040
         ORG   &TASK+(TCBGRS13-TCB)                                     03800040
         DC    A(&GENREG(14))                                           03850040
         ORG   &TASK+(TCBGRS14-TCB)                                     03900040
         DC    A(&GENREG(15))                                           03920040
         ORG   &TASK+(TCBGRS15-TCB)                                     04000040
         DC    A(&GENREG(16))                                           04050040
         ORG   &TASK+(TCBTCB-TCB)                                       04100040
         DC    A(&RQUEUE)                                               04150040
         ORG   &TASK+(TCBJSTCB-TCB)                                     04200040
         DC    A(&TASK)                                                 04250040
         ORG   &TASK+(TCBNTC-TCB)                                       04300040
         DC    A(&SISTER)                                               04350040
         ORG   &TASK+(TCBOTC-TCB)                                       04400040
         DC    A(&ORIGIN)                                               04422040
         ORG   &TASK+(TCBLTC-TCB)                                       04468040
         DC    A(&TCBLTC)                                               04478040
         ORG   &TASK+(TCBSTAB-TCB)                                      04483940
         DC    A(&SCBNUM)                                               04493940
         ORG   &TASK+(TCBFLGS6-TCB)                                     04495940
         DC    X'&TCBFLG6'                                              04496340
         ORG   &TASK+(TCBFLGS7-TCB)                                     04496740
         DC    X'&TCBFLG7'                                              04497140
         ORG   &TASK+(TCBEXT2-TCB)                                      04497540
         DC    A(XTEN&N)                                                04497940
         ORG   &TASK+(TCBBACK-TCB)                                      04501940
         DC    A(&TCBBACK)                                              04505940
         ORG   &TASK+(TCBTID-TCB)                                       04509940
         DC    X'&TASKID'                                               04513940
         ORG   &TASK+(TCBTCBID-TCB)                                     04517940
         DC    C'TCB '                                                  04521940
         ORG   &TASK+TCBMNLEN                                           04525940
XTEN&N   EQU   *                                                        04529940
         EJECT                                                   Y02952 04533940
.*       GENERATE PRB                                                   04537940
*      PRB FOR THE ABOVE TASK                                           04550001
         ORG                                                            04600040
RBFIX&N  DS    0D                                                       04650040
         DC    XL(PRBLEN)'00'                                           04700040
         ORG   RBFIX&N+RBPRFLNA                                         04750040
RB&N     EQU   *                                                        04800040
&RBLABEL DS    0D                                                       04820040
         ORG   RB&N+(RBSIZE-RBSECT)                                     04850040
         DC    X'00110080'                                              04900040
         ORG   RB&N+(RBOPSW-RBSECT)                                     04940040
         AIF   (&N NE 6).NOWAIT                                         04980040
         ENTRY IEAWPSW                                                  05020040
IEAWPSW  DC    X'&PSW'                                                  05060040
         AGO   .WTLABEL                                                 05150040
.NOWAIT  DC    X'&PSW'                                                  05180040
.WTLABEL DC    A(&PGM)                                                  05210040
         ORG   RB&N+(RBWCF-RBBASIC)                                     05240040
         DC    X'&WAITCT'                                               05300440
         ORG   RB&N+(RBLINKB-RBBASIC)                                   05355440
         DC    AL3(&TASK)                                               05361040
         ORG                                                            05368040
         AIF   (&N EQ 1 OR &N GE 4).NOSTAR                              05376640
         SPACE 3                                               @ZA02383 05377640
.*       GENERATE ESTAR SCB                                    @ZA02383 05378640
* ESTAR SCB FOR THE ABOVE TASK                                 @ZA02383 05379640
SCB&N    DC    XL(SCBLEN)'00'                                           05380640
         ORG   SCB&N+(SCBEXIT-SCB)                                      05382640
         DC    A(&SEXIT)                                                05384440
         ORG   SCB&N+(SCBFLGS1-SCB)                                     05384540
         DC    X'56'                                           @ZA08178 05385240
         ORG   SCB&N+(SCBPARMA-SCB)                                     05386640