         MACRO                                                          00005002
&NAME    IECRPS &RDEB=,&WKREG1=,&EXTPR=                                 00010002
.*                                                                      00015002
.*       MACRO DELETIONS/CHANGES FOR VS1 RELEASE 2                      00020002
.*       MACRO DELETIONS/CHANGES FOR VS2 RELEASE 1.6                    00025002
.*       MACRO DELETIONS/CHANGES FOR OS  RELEASE 21.7                   00030002
.*       MACRO DELETIONS/CHANGES FOR VS2 RELEASE 2                      00035002
.*0000000100,000350,000850,000950-001050,001700,002100,002600,   Y02080 00035102
.*0000002900,003000,003450-003500,004300,055450-055750,055850-   Y02080 00035202
.*0000057350,057600-057650,057900,058050,058250,058400,058750-   Y02080 00035302
.*0000058850,059300,059600,059750-060100                         Y02080 00035402
.*0000003500,057400,057500,058600,058700-059550,059750           YM3048 00035602
.*0000000900,001500,002100,002600,002850-003050,003550,004300-   YM3997 00035802
.*0000004350,057600-058600,059650-060150                         YM3997 00036002
.*0000002100                                                     YM6546 00037002
.*                                                                      00040002
.********************************************************************** 00045002
.*                                                                      00050002
.* MODULE NAME = IECRPS                                                 00055002
.*                                                                      00060002
.* DESCRIPTIVE NAME = DADSM RPS SETUP MACRO                             00065002
.*                                                                      00070002
.* COPYRIGHT = NONE                                                     00075002
.* STATUS = CHANGE LEVEL 000                                            00080002
.* FUNCTION = THIS MACRO OBTAINS A 128 BYTE RPS WORK AREA AND           00085002
.*            LOCATES THE ADDRESS OF IGG019EK, THE RPS SIO APPENDAGE.   00090002
.*                                                                      00105002
.* NOTES = THIS IS AN INTERNAL MACRO USED IN THE FOLLOWING DADSM        00110002
.*         FUNCTIONS:                                                   00115002
.*                                                                      00120002
.*             ALLOCATE                                                 00125002
.*             SCRATCH                                                  00130002
.*             EXTEND                                                   00135002
.*             PARTIAL RELEASE                                          00140002
.*                                                                      00145002
.*    DEPENDENCIES = THE NAME AND EPA OF IGG019EK MUST BE DEFINED       00150002
.*                   BY THE XCTLTABL MACRO IN EACH MODULE THAT USES     00151002
.*                   THE IECRPS MACRO.                                  00152002
.*                                                                      00155002
.*    RESTRICTIONS = NONE                                               00160002
.*                                                                      00165002
.*    REGISTER CONVENTIONS = USES REGISTERS 0, 1, AND 15                00170002
.*                                                                      00175002
.*    PATCH LABEL = NOT APPLICABLE                                      00180002
.*                                                                      00185002
.* MODULE TYPE = MACRO                                                  00190002
.*                                                                      00195002
.*    PROCESSOR = ASSEMBLER                                             00200002
.*                                                                      00205002
.*    MODULE SIZE = 124 DECIMAL BYTES                                   00210002
.*                                                                      00220002
.*    ATTRIBUTES = NOT APPLICABLE                                       00225002
.*                                                                      00230002
.* ENTRY POINT = NOT APPLICABLE                                         00235002
.*                                                                      00240002
.*    PURPOSE = SEE FUNCTION                                            00245002
.*                                                                      00250002
.*    LINKAGE =                                                         00255002
.*             NAME IECRPS RDEB=R1,WKREG1=R2,EXTPR=R3                   00260002
.*                                                                      00265002
.*    INPUT = NAME SPECIFIED AS AN ACCEPTABLE ASSEMBLER LANGUAGE        00270002
.*            SYMBOL.                                                   00275002
.*                                                                      00280002
.*            RDEB= IS A KEYWORD PARAMETER THAT IS A REGISTER NAME OF   00310002
.*            A REGISTER THAT CONTAINS THE ADDRESS OF THE DEB THAT IS   00315002
.*            TO BE USED FOR RPS.                                       00320002
.*                                                                      00325002
.*            WKREG1= IS A KEYWORD PARAMETER THAT IS A REGISTER NAME    00330002
.*            OF A REGISTER THAT MAY BE USED BY THE MACRO AS A WORK     00335002
.*            REGISTER                                                  00340002
.*                                                                      00341002
.*            EXTPR= IS A KEYWORD PARAMETER THAT IS A REGISTER NAME     00342002
.*            OF A REGISTER THAT POINTS TO THE EXTENDED PREFIX OF THE   00343002
.*            CALLING FUNCTION'S WORK AREA, IN WHICH REGISTERS 2-14     00344002
.*            WILL BE SAVED AT OFFSET 12.                               00345002
.*                                                                      00346002
.*    OUTPUT = RPS WORK AREA IS OBTAINED, RPS SIO/CE/ABE APPENDAGE      00350002
.*             ADDRESS IS LOCATED.                                      00355002
.*                                                                      00360002
.* EXIT-NORMAL = MEND STATEMENT                                         00365002
.*                                                                      00370002
.* EXIT-ERROR = NOT APPLICABLE                                          00375002
.*                                                                      00380002
.* EXTERNAL REFERENCES = NONE                                           00385002
.*                                                                      00390002
.*    ROUTINES = NONE                                                   00395002
.*                                                                      00400002
.*    DATA AREAS = NONE                                                 00405002
.*                                                                      00410002
.*    CONTROL BLOCKS = DEB                                              00415002
.*                     APPENDAGE VECTOR TABLE                           00420002
.*                                                                      00425002
.* MACROS = IECRES GET AND LOAD                                         00430002
.*          MODESET                                                     00435002
.*                                                                      00440002
.* CHANGE ACTIVITY = SEE DELETIONS/CHANGES PRECEDING MACRO              00445002
.*                                                                      00450002
.*                                                                      00455002
.********************************************************************** 05540002
         MNOTE '         IECRES GET,EXTPR=(&EXTPR),ID=RPSA,LV=128,'     05545002
         MNOTE '               STM=(2,14,12(&EXTPR))'                   05550002
         IECRES GET,EXTPR=(&EXTPR),ID=RPSA,LV=128,               Y02080X05560002
               STM=(2,14,12(&EXTPR))    OBTAIN WORK AREA         Y02080 05565002
         LR    &WKREG1,1                SAVE PTR TO RPS WKAREA          05580002
         L     15,28(,&RDEB)            PTR TO APPENDAGE VECTOR TABLE   05740002
         MVC   0(20,&WKREG1),0(15)      COPY AVT INTO RPS WORK AREA     05745002
         ST    15,120(,&WKREG1)         SAVE PTR TO OLD AVT IN RPS      05750002
*                                       WORK AREA                       05755002
         MNOTE '         IECRES LOAD,EXTPR=(&EXTPR),MODNM=RPS19EK,'     05760002
         MNOTE '               BRANCH=NO                ISSUE LOAD'     05765002
         IECRES LOAD,EXTPR=(&EXTPR),MODNM=RPS19EK,BRANCH=NO      YM3997 05770002
         MVC   4(4,&WKREG1),WTGMODEP    STORE PTR TO SIO APPENDAGE      05860002
*                                       IN NEW AVT                      05865002
*        MODESET EXTKEY=ZERO            RETURN TO KEY ZERO AFTER        05870002
*                                       ISSUING THE IECRES GET FOR      05875002
*                                       CORE IN THE DATAMGT KEY         05880002
         MODESET EXTKEY=ZERO            RETURN TO KEY ZERO              05885002
         ST    &WKREG1,28(,&RDEB)       STORE PTR TO NEW AVT IN DEB     05890002
         XC    WTGMODEP,WTGMODEP        CLEAR THE ENTRY POINT ADDRESS   05895002
         OI    DSMADTB1,DSMRPSAP        SET THE RPS APPENDAGE SWITCH    05900002
*                                       IN THE DADSM AUDIT TRAIL        05905002
         MEND                                                           06020002
