         MACRO                                                          00100021
&NAME    IECRES &FUNC,&IDTTR,&BCODE,&STM=,&LV=,&A=,&SP=,&KEY=,   Y02080*00150002
               &ID=,&PREFIX=,&EXTPR=,&MODID=,&MODNM=,&BRCODE=,   Y02080*00200002
               &EXITAD=,&REG0=,&REG1=,                           Y02082*00250002
               &DEB=,                                            Y02134*00300002
               &DCBCOPY=,                                        Y02082*00350002
               &BRANCH=,&EPA=,&REUSE=                            Y02080 00400002
.*                                                               Y02080 00450002
.*       MACRO DELETIONS/CHANGES FOR VS2 RELEASE 2                      00500002
.*                                                                      00600002
.*                                                                      00650002
.********************************************************************** 00700002
.*                                                                      00750002
.* MODULE NAME = IECRES (VS2-2)                                         00800002
.*                                                                      00850002
.* DESCRIPTIVE NAME = OPEN/CLOSE/EOV/DADSM SERVICE ROUTINE MACRO        00900002
.*                                                                      00950002
.* COPYRIGHT = NONE                                                     01000002
.*                                                                      01050002
.* STATUS = CHANGE LEVEL 000                                            01100002
.*                                                                      01150002
.* FUNCTION = THERE ARE TWELVE FUNCTIONS WHICH CAN BE SPECIFIED FOR     01200002
.*            THE IECRES MACRO.  NINE OF THESE FUNCTIONS SET UP THE     01210002
.*            VARIOUS INTERFACES TO THE OPEN/CLOSE/EOV/DADSM SERVICE    01220002
.*            ROUTINE (IFG019RA):                                       01250002
.*                                                                      01350002
.*            IFG019RA+0  - ENTRY FOR WAIT FACILITY                     01400002
.*            IFG019RA+4  - ENTRY FOR SELECT-LOAD FACILITY              01450002
.*            IFG019RA+8  - ENTRY FOR DCB SYNCHRONIZATION FACILITY      01500002
.*            IFG019RA+12 - ENTRY FOR QMNGRIO FACILITY                  01550002
.*            IFG019RA+20 - ENTRY FOR LOAD AND BRANCH FACILITY          01600002
.*            IFG019RA+24 - ENTRY FOR LOAD AND RETURN FACILITY          01650002
.*            IFG019RA+28 - ENTRY FOR GET WORK AREA FACILITY            01700002
.*            IFG019RA+32 - ENTRY FOR GET WTG/EOV WORK AREA FACILITY    01750002
.*            IFG019RA+36 - ENTRY FOR GET FIRST WORK AREA FACILITY      01800002
.*            IFG019RA+40 - ENTRY TO INITIALIZE PREFIX=FIRST WKAREA     01850002
.*            IFG019RA+44 - ENTRY TO INITIALIZE AND/OR COPY THE DCB     01900002
.*            IFG019RA+48 - ENTRY FOR FREE WORK AREA FACILITY           01950002
.*            IFG019RA+52 - ENTRY FOR FREE FIRST OR WTG/EOV FACILITY    02000002
.*            IFG019RA+56 - ENTRY FOR UEXIT FACILITY                    02050002
.*                                                                      02060002
.*            THE OTHER THREE FUNCTIONS (IECRES BRANCH, IECRES EXIT,    02070002
.*            AND IECRES LOCJFCB) DO NOT SET UP AN INTERFACE TO         02080002
.*            IFG019RA, BUT MERELY GENERATE EXECUTABLE CODE.            02090002
.*                                                                      02100002
.* NOTES = SEE BELOW                                                    02150002
.*                                                                      02200002
.*      DEPENDENCIES = THE USE OF IECRES XCTL,&IDTTR,&BCODE USES        02250002
.*                     THE BRT=NO EXPANSION OF THE XCTLTABL MACRO.      02300002
.*                                                                      02350002
.*                     SOME OF THE MACRO FUNCTIONS USE SYMBOLS WHICH    02400002
.*                     MUST BE EQUATED SOMEHOW IN THE CALLING MODULE.   02450002
.*                                                                      02500002
.*                     SYMBOL     FUNCTION USING THE SYMBOL             02550002
.*                                                                      02600002
.*                     EOVSIZE    IECRES GET,PREFIX=EOV                 02650002
.*                     RES        IECRES LOAD,BRANCH=QUEUED             02850002
.*                                IECRES SYNCH                          02900002
.*                                IECRES WAIT                           02950002
.*                                IECRES XCTL                           03000002
.*                     RESSYNCH   IECRES SYNCH                          03050002
.*                     RESXCTL    IECRES LOAD,BRANCH=QUEUED             03100002
.*                                IECRES XCTL                           03150002
.*                     RWTGC      IECRES LOAD,BRANCH=QUEUED             03200002
.*                                IECRES XCTL                           03250002
.*                                                                      03300002
.*                     ADDITIONALLY, ALMOST ALL OF THE FOURTEEN         03350002
.*                     FUNCTIONS REFERENCE FIELDS DEFINED IN THE        03400002
.*                     PREFIX, EXTENDED PREFIX, OR WTG TABLE PORTIONS   03450002
.*                     OF THE OPEN/CLOSE/EOV OR DADSM WORK AREAS.       03500002
.*                                                                      03550002
.*      RESTRICTIONS = ONLY THE OPEN, CLOSE, AND EOV ROUTINES           03600002
.*                     (INCLUDING RDJFCB) USE THE WAIT, SELECT-LOAD,    03650002
.*                     SYNCH DCB, QMNGRIO, GET WTG/EOV, INIT/COPY,      03700002
.*                     AND UEXIT FACILITIES.                            03750002
.*                     ONLY DADSM ROUTINES, TASK CLOSE, AND THE         03800002
.*                     RECOVERY ROUTINES USE THE GET FIRST AND          03810002
.*                     INITIALIZE PREFIX=FIRST FACILITIES.              03850002
.*                                                                      03900002
.*      REGISTER CONVENTIONS = NOT APPLICABLE                           03950002
.*                                                                      04000002
.* PATCH LABEL = NOT APPLICABLE                                         04050002
.*                                                                      04100002
.* MODULE TYPE = MACRO                                                  04150002
.*                                                                      04200002
.*      PROCESSOR = ASSEMBLER LANGUAGE                                  04250002
.*                                                                      04300002
.*      MODULE SIZE = NOT APPLICABLE                                    04350002
.*                                                                      04400002
.*      ATTRIBUTES = NOT APPLICABLE                                     04450002
.*                                                                      04500002
.* ENTRY POINT = NOT APPLICABLE                                         04550002
.*                                                                      04600002
.*      PURPOSE = SEE FUNCTION                                          04650002
.*                                                                      04700002
.*      LINKAGE = LABEL IECRES &FUNC,&IDTTR,&BCODE,KEYWORDS=            04750002
.*                                                                      04800002
.*      INPUT =   OPTIONAL LABEL SPECIFIED AS AN ACCEPTABLE ASSEMBLER   05050002
.*                LABEL WHICH CAN BE USED BY THE CALLING CSECT.         05100002
.*                                                                      05150002
.*                                                                      05200002
.*                &FUNC IS THE FIRST POSITIONAL PARAMETER.  THE         05250002
.*                FUNCTIONS WHICH CAN BE SPECIFIED FOR IECRES ARE:      05300002
.*                                                                      05350002
.*                BRANCH   - GENERATES CODE TO BRANCH ON THE CONTENTS   05400002
.*                           OF A REGISTER                              05450002
.*                EXIT     - GENERATES CODE TO LOAD REGISTERS AND       05500002
.*                           RETURN                                     05550002
.*                FREE     - BUILDS THE INTERFACE FOR BOTH OF THE       05600002
.*                           FREE WORK AREA FACILITIES                  05610002
.*                GET      - BUILDS THE INTERFACE FOR ALL THREE GET     05620002
.*                           WORK AREA FACILITIES                       05630002
.*                INIT     - BUILDS THE INTERFACE FOR THE INITIALIZE-   05650002
.*                           DCB COPY FACILITY                          05700002
.*                LOAD     - BUILDS THE INTERFACE FOR ALL THREE LOAD    05750002
.*                           FACILITIES                                 05800002
.*                LOCJFCB  - GENERATES CODE TO INCREMENT PAST THE JFCB  05850002
.*                           PREFIX                                     05900002
.*                SYNCHDCB - BUILDS THE INTERFACE FOR THE DCB SYNCHRO-  05950002
.*                           NIZATION FACILITY                          06000002
.*                UEXIT    - BUILDS THE INTERFACE FOR THE USER EXIT     06050002
.*                           FACILITY                                   06100002
.*                WAIT     - BUILDS THE INTERFACE FOR THE WAIT FACILITY 06150002
.*                WRJFCB   - BUILDS THE INTERFACE FOR THE QMNGRIO       06200002
.*                           FACILITY                                   06250002
.*                XCTL     - BUILDS THE INTERFACE FOR THE SELECT-LOAD   06300002
.*                           FACILITY                                   06350002
.*                                                                      06400002
.*                                                                      06450002
.*                &IDTTR, THE SECOND POSITIONAL PARAMETER, IS OPTIONAL. 06500002
.*                IT CAN BE USED WITH FOUR OF THE IECRES FUNCTIONS.     06550002
.*                                                                      06600002
.*                FOR IECRES GET/FREE, IF &IDTTR IS SPECIFIED (AS THE   06650002
.*                CHARACTERS 'WLH' WHICH STAND FOR 'WITH LOCK HELD'),   06700002
.*                THEN IFG019RA DOES NOT ACQUIRE THE LOCAL LOCK.        06750002
.*                                                                      06800002
.*                FOR IECRES LOCJFCB, &IDTTR IS THE NAME OF A REGISTER  06850002
.*                WHICH POINTS TO A WORD CONTAINING THE JFCB PREFIX     06900002
.*                ADDRESS.                                              06950002
.*                                                                      07000002
.*                FOR IECRES WRJFCB, &IDTTR IS THE NAME OF A REGISTER   07050002
.*                WHICH POINTS TO 3 BYTES CONTAINING THE JFCB PREFIX    07100002
.*                ADDRESS.                                              07150002
.*                                                                      07200002
.*                FOR IECRES XCTL, IF &IDTTR IS SPECIFIED, IT MUST      07210002
.*                POINT TO THE ID AND TTR OF A MODULE TO WHICH CONTROL  07220002
.*                SHOULD BE GIVEN BY IFG019RA.                          07230002
.*                                                                      07250002
.*                                                                      07300002
.*                &BCODE, THE THIRD POSITIONAL PARAMETER IS OPTIONAL.   07350002
.*                IT CAN BE USED WITH TWO OF THE IECRES FUNCTIONS.      07400002
.*                                                                      07450002
.*                FOR IECRES WRJFCB, &BCODE IS THE NAME OF A REGISTER   07500002
.*                WHICH POINTS TO THE JFCB TO BE 'WRITTEN' TO SWA.      07550002
.*                                                                      07600002
.*                FOR IECRES XCTL, IF &BCODE IS SPECIFIED, IT IS THE    07650002
.*                NAME OF A REGISTER WHICH CONTAINS THE BRANCH TABLE    07700002
.*                OFFSET.                                               07750002
.*                                                                      07800002
.*                                                                      07850002
.*                THE OPTIONAL KEYWORD PARAMETERS ARE:                  07900002
.*                                                                      07950002
.*                A=                                                    08000002
.*                BRANCH=                                               08050002
.*                BRCODE=                                               08100002
.*                DCBCOPY=                                              08150002
.*                DEB=                                                  08200002
.*                EPA=                                                  08250002
.*                EXITAD=                                               08300002
.*                EXTPR=                                                08350002
.*                ID=                                                   08400002
.*                KEY=                                                  08450002
.*                LV=                                                   08500002
.*                MODID=                                                08550002
.*                MODNM=                                                08600002
.*                PREFIX=                                               08650002
.*                REG0=                                                 08700002
.*                REG1=                                                 08750002
.*                REUSE=                                                08800002
.*                SP=                                                   08850002
.*                STM=                                                  08900002
.*                                                                      10250002
.*                                                                      10300002
.*      OUTPUT = INTERFACE TO IFG019RA                                  10350002
.*                                                                      10400002
.* EXIT-NORMAL = MEXIT OR MEND STATEMENT                                10950002
.*                                                                      11000002
.* EXIT-ERROR = ERROR MESSAGES:                                         11050002
.*                                                                      11100002
.*      MNOTE 8,***** INVALID FUNCTION - &FUNC                          11150002
.*      MNOTE 4,WAIT CAN HAVE NO PARAMETERS                             11200002
.*      MNOTE 4,XCTL CAN HAVE ONLY 2 PARAMETERS                         11250002
.*      MNOTE 4,SYNCHDCB CAN HAVE NO PARAMETERS                         11300002
.*      MNOTE 4,LV ONLY ON FREE PREFIX=NO                               11350002
.*      MNOTE 4,SP ONLY ON FREE PREFIX=NO                               11400002
.*      MNOTE 4,KEY ONLY ON FREE PREFIX=NO                              11450002
.*      MNOTE 4,ID= INVALID FOR FREE                                    11500002
.*      MNOTE 8,CODE PREFIX OR EXTPR WITH GET OR FREE                   11550002
.*      MNOTE 8,STM ON LAST FREE INVALID                                11600002
.*      MNOTE 8,STM MUST HAVE 3 PARAMETERS                              11650002
.*      MNOTE 8,STM ERROR - GET RETURNS ADDR OF AREA IN R1              11700002
.*      MNOTE 8,A= ADDR OF DCB PARAM LIST                               11750002
.*      MNOTE 8,A= ADDR TO FREE OR GET PREFIX ADDR MISSING              11800002
.*      MNOTE 8,LV= LENGTH MISSING                                      11850002
.*      MNOTE 8,PREFIX=&PREFIX INCOMPATIBLE WITH GET REQUEST            11900002
.*      MNOTE 8,PREFIX OR EXTPR PARAMETER REQUIRED FOR LOAD UNLESS      11950002
.*            BRANCH=QUEUED                                             12000002
.*      MNOTE 8,BRANCH PARAMETER INVALID                                12100002
.*      MNOTE 8,BRANCH PARAMETER REQUIRED FOR LOAD                      12150002
.*      MNOTE 8,DEB= OR DCBCOPY= MUST BE CODED                          12200002
.*      MNOTE 8,INITIAL CALL ALWAYS TOWKAR                              12250002
.*      MNOTE 12,***  IHB002 INVALID DEB OPERAND SPECIFIED-&DEB         12300002
.*      MNOTE 12,***  IHB002 INVALID DCBCOPY OPERAND SPECIFIED-&DCBCOPY 12350002
.*                                                                      12400002
.* EXTERNAL REFERENCES = NONE                                           12550002
.*                                                                      12600002
.*      ROUTINES = NONE                                                 12800002
.*                                                                      12850002
.*      DATA AREAS = NONE                                               12900002
.*                                                                      12950002
.*      CONTROL BLOCKS = CVT                                            13150002
.*                                                                      13200002
.* TABLES = EOV WORK AREA                                               13400002
.*          OPEN/CLOSE WORK AREA                                        13450002
.*          OPEN/CLOSE WTG TABLE                                        13500002
.*          VARIOUS DADSM WORK AREAS                                    13550002
.*                                                                      13600002
.* MACROS = IHBERMAC                                                    13800002
.*          MODESET                                                     13850002
.*          RETURN                                                      13900002
.*                                                                      13950002
.* CHANGE ACTIVITY = SEE DELETIONS/CHANGES PRECEDING THE MACRO PROLOGUE 14100002
.*                                                                      14150002
.********************************************************************** 14200002
.*                                                                      14250002
         LCLA  &IECPRFX,&CODE                                    Y02080 14300002
         LCLC  &PREFX                                            Y02080 14350002
.*                                                                      14400002
         AIF   ('&FUNC' EQ 'WAIT').WAIT  WAITS ON DXECB IN WORK AREA    14450002
         AIF   ('&FUNC' EQ 'XCTL').XCTL  XCTL TO NEXT MODULE            14500002
         AIF   ('&FUNC' EQ 'SYNCHDCB').SYNCHDC ALL DCB'S TO SAME POINT  14550002
         AIF   ('&FUNC' EQ 'UEXIT').IECE000 USER EXIT EXPANSION  Y02082 14600002
         AIF   ('&FUNC' EQ 'LOAD').LOAD GET MODULE EPA           Y02080 14650002
         AIF   ('&FUNC' EQ 'BRANCH').BRANCH BRANCH TO MODULE     Y02080 14700002
         AIF   ('&FUNC' EQ 'GET').IECA000 LINK TO GETMAIN        Y02080 14750002
         AIF   ('&FUNC' EQ 'FREE').IECA000 LINK TO FREEMAIN      Y02080 14800002
         AIF   ('&FUNC' EQ 'LOCJFCB').IECB000 GO TO READ JFCB    Y02080 14850002
         AIF   ('&FUNC' EQ 'WRJFCB').IECC000 GO TO WRITE JFCB    Y02080 14900002
         AIF   ('&FUNC' EQ 'INIT').IECA000 LINK TO INITIALIZE    Y02134 14950002
         AIF   ('&FUNC' EQ 'EXIT').IECD000 SET UP CALLER RETURN  Y02134 15000002
.*                                                                      15050002
         MNOTE 8,'***** INVALID FUNCTION - &FUNC'                Y02080 15100002
&NAME    DC    H'0'                     DEFINE NAME, HALT EXECUTION     15150002
         MEXIT                                                          15200002
.********************************************************************** 15250002
.*       FUNCTION = WAIT                                                15300002
.********************************************************************** 15350002
.WAIT    AIF   (N'&SYSLIST EQ 1).WAIT1                                  15400002
         MNOTE 4,'WAIT CAN HAVE NO PARAMETERS'                          15450002
.WAIT1   ANOP                                                           15500002
&NAME    BALR  14,RES                   BRANCH TO WAIT SUBROUTINE       15550002
         MEXIT                                                          15600002
.********************************************************************** 15650002
.*       FUNCTION = XCTL                                                15700002
.********************************************************************** 15750002
.XCTL    AIF   (N'&SYSLIST LE 3).XCTL1                                  15800002
         MNOTE 4,'XCTL CAN HAVE ONLY 2 PARAMETERS'                      15850002
.XCTL1   AIF   ('&IDTTR' EQ '').XCTL6                                   15900002
.*                                                                      15950002
         AIF   ('&IDTTR'(1,1) EQ '(').XCTL2                             16000002
&NAME    MVC   0(5,RWTGC),&IDTTR        MOVE ID & TTR INTO WTG TABLE    16050002
         AGO   .XCTL3                                                   16100002
.XCTL2   ANOP                                                           16150002
&NAME    MVC   0(5,RWTGC),0&IDTTR       MOVE ID & TTR INTO WTG TABLE    16200002
.XCTL3   AIF   ('&BCODE' EQ '').XCTL4A                                  16250002
         AIF   ('&BCODE'(1,1) EQ '(').XCTL4                             16300002
         LA    14,&BCODE.(,0)           LOAD BRANCH TABLE OFFSET/INDR   16350002
         AGO   .XCTL4A                                                  16400002
.XCTL4   AIF   ('&BCODE' EQ '(14)').XCTL4A                              16450002
         LR    14,&BCODE(1)             LOAD BRANCH TABLE OFFSET/INDR   16550002
.XCTL4A  AIF   ('&IDTTR'(1,1) EQ '(').XCTL4B                            16600002
         ICM   14,8,&IDTTR+5            INSERT LENGTH IN HI ORDER BYTE  16650002
         AGO   .XCTL5                                                   16700002
.XCTL4B  ICM   14,8,5&IDTTR             INSERT LENGTH IN HI ORDER BYTE  16750002
.XCTL5   B     RESXCTL(,RES)            BRANCH TO IFG019RA TO DO XCTL   16800002
         MEXIT                                                          16850002
.*                                                                      16900002
.XCTL6   AIF   ('&BCODE' EQ '').XCTL9                                   16950002
         AIF   ('&BCODE'(1,1) EQ '(').XCTL7                             17000002
&NAME    LA    14,&BCODE.(,0)           LOAD BRANCH TABLE OFFSET/INDR   17050002
         AGO   .XCTL8                                                   17100002
.XCTL7   AIF   ('&BCODE' EQ '(14)').XCTL9                               17150002
&NAME    LR    14,&BCODE(1)             LOAD BRANCH TABLE OFFSET/INDR   17250002
.XCTL8   B     RESXCTL(,RES)            BRANCH TO IFG019RA TO DO XCTL   17300002
         MEXIT                                                          17350002
.*                                                                      17400002
.XCTL9   ANOP                                                           17450002
&NAME    B     RESXCTL(,RES)            BRANCH TO IFG019RA TO DO XCTL   17500002
         MEXIT                                                          17550002
.********************************************************************** 17600002
.*       FUNCTION = SYNCHDCB                                            17650002
.********************************************************************** 17700002
.SYNCHDC AIF   (N'&SYSLIST EQ 1).SYNCHD1                                17750002
         MNOTE 4,'SYNCHDCB CAN HAVE NO PARAMETERS'                      17800002
.SYNCHD1 ANOP                                                           17850002
&NAME    BAL   14,RESSYNCH(,RES)       BRANCH TO SYNCH DCB SUBROUTINE   17900002
         MEXIT                                                   Y02080 17950002
.********************************************************************** 18000002
.*       FUNCTION = GET, FREE, OR INIT                                  18050002
.********************************************************************** 18100002
.IECA000 AIF   ('&NAME' EQ '').IECA010  IF NAME OMITTED          Y02080 18150002
&NAME    DS    0H                       LABEL AND ALIGN                 18200002
.***                                                             Y02080 18250002
.*       CHECK IF VALID CALL                                     Y02080 18300002
.***                                                             Y02080 18350002
.IECA010 ANOP                                                    Y02080 18400002
&PREFX   SETC  '&PREFIX'                SET TO SPECIFIED VALUE   Y02080 18450002
&CODE    SETA  0                        SET RECOVERY CODE TO 0   Y02134 18500002
         AIF   ('&PREFX' NE '').IECA015 TEST IF SPECIFIED        Y02080 18550002
         AIF   (T'&EXTPR EQ 'O').IECA014  TEST IF SPECIFIED      YM1410 18600002
&PREFX   SETC  'YES'                    INDICATE PREFIX EXISTS   YM1410 18650002
         AGO   .IECA015                                          YM1410 18700002
.IECA014 ANOP                                                    YM1410 18750002
&PREFX   SETC  'NO'                     SET TO DEFAULT           Y02080 18800002
.IECA015 AIF   ('&PREFX'(1,1) NE 'R').IECA016 CHECK FOR RECOVERY Y02080 18850002
         AIF   ('&FUNC' EQ 'GET').IECA930 GET RWTG INVALID       Y02134 18900002
&PREFX   SETC  '&PREFX'(2,K'&PREFX-1)   INDICATE PROPER ENTRY    Y02080 18950002
&CODE    SETA  1                        SET RECOVERY CODE TO 1   Y02134 19000002
.IECA016 AIF   ('&FUNC' NE 'INIT' AND T'&EXTPR EQ 'O' AND              *19050002
               '&PREFIX' EQ '').IECA900                          Y02080 19100002
         AIF   (T'&STM EQ 'O').IECA100 NO STM                    Y02080 19150002
.***                                                             Y02080 19200002
.*       STM PROCESSING                                          Y02080 19250002
.***                                                             Y02080 19300002
         AIF   ('&FUNC' NE 'FREE').IECA020 STM ALWAYS ALLOWED GETY02080 19350002
         AIF   ('&PREFX' EQ 'WTG' OR '&PREFX' EQ 'EOV' OR              *19400002
               '&PREFX' EQ 'FIRST').IECA905 NO STM FOR LAST      Y02080 19450002
.IECA020 AIF   (N'&STM NE 3).IECA910    STM CODED BAD            Y02080 19500002
         AIF   ('&FUNC' NE 'GET').IECA040 GO TO INIT RESTRICTIONSY02080 19550002
         AIF   ('&STM(1)' EQ '0' OR '&STM(1)' EQ '1' OR                *19600002
               '&STM(1)' EQ '(R0)' OR '&STM(1)' EQ '(R1)').IECA913     *19650002
                                        GET RTNS ADDR AREA IN R1 Y02080 19700002
.***                                                                    19750002
.*       STM GEN                                                        19800002
.***                                                                    19850002
.IECA040 AIF   ('&PREFX' EQ 'WTG' OR '&PREFX' EQ 'EOV' OR              *19900002
               '&PREFX' EQ 'FIRST' OR '&PREFX' EQ 'EXTPR').IECA050     *19950002
                                        FIRST TIMERS             Y02080 20000002
         AIF   ('&STM(3)' EQ 'DXXPREFX' OR '&STM(3)' EQ 'WTGPREFX').IEC*20050002
               A060                     CHECK FOR STD SAVE AREA  Y02080 20100002
.IECA050 ANOP                                                    Y02080 20150002
         STM   &STM(1),&STM(2),&STM(3)  SAVE REGISTERS                  20200002
         LA    15,&STM(3)               ADDRESS OF REGISTER SAVE AREA   20250002
         AGO   .IECA100                 PROC A=                  Y02080 20300002
.IECA060 ANOP                                                    Y02080 20350002
         L     15,&STM(3)               GET ADDRESS OF PREFIX           20400002
         LA    15,IECREGSV-IECPREFX(,15) ADDR OF REGISTER SAVE AREA     20450002
         STM   &STM(1),&STM(2),0(15)    SAVE REGISTERS                  20500002
.***                                                             Y02080 20550002
.*       A = ADDRESS OF WORK AREA FOR GET,PREFIX=YES OR                 20600002
.*           ADDRESS OF PREFIX FOR GET WITH DEFAULT OF PREFIX=NO OR     20650002
.*           ADDRESS OF A DCB PARAMETER LIST FOR GET,PREFIX=WTG/EOV     20700002
.***                                                             Y02080 20750002
.IECA100 AIF   ('&FUNC' EQ 'INIT').INIT100 INIT PROC             Y02080 20800002
         AIF   (T'&EXTPR NE 'O').IECA105 EXTPR= ADDR OF W/A      Y02080 20850002