         MACRO                                                          00006000
&NAME    IEDBENT &FMTYPE=X'01',                                        *00012000
               &FMPROF=X'03',                                          *00018000
               &TSPROF=X'03',                                          *00024000
               &PRIPROT=X'A0',                                 @OZ27691*00030082
               &SECPROT=X'D0',                                 @OZ27691*00036082
               &COMPROT=XL2'2040',                                     *00042000
               &TSUSAGE=XL6'85850000',                                 *00048000
               &LUPROF=X'00',                                          *00054000
               &PRESERC=XL11'00',                              @YM06069*00060000
               &USRDATA=,                                      @YM07701*00064000
               &LOGON=                                         @YM07701 00068000
.*A000000-999999                                               @Y17XAFN 00072000
.*C000300,000360,001560,001620,001680,001740,001800,           @OZ27691 00072182
.*C001860,004980,005040,005340                                 @OZ27691 00072282
         GBLB  &IEDBIG                                                  00078000
         LCLA  &E,&LEN,&F,&G,&H                                @YM07701 00084000
         LCLB  &NOGO,&BIT                                               00090000
         LCLC  &OPER,&USRD,&LOGD                               @YM07701 00096000
&OPER    SETC  'FMTYPE'                                                 00102000
         AIF   ('&FMTYPE'(1,2) NE 'X''' OR '&FMTYPE'(5,1) NE '''').BIER*00108000
               R                                                        00114000
&OPER    SETC  'FMPROF'                                                 00120000
         AIF   ('&FMPROF'(1,2) NE 'X''' OR '&FMPROF'(5,1) NE '''').BIER*00126000
               R                                                        00132000
&OPER    SETC  'TSPROF'                                                 00138000
         AIF   ('&TSPROF'(1,2) NE 'X''' OR '&TSPROF'(5,1) NE '''').BIER*00144000
               R                                                        00150000
&OPER    SETC  'PRIPROT'                                       @OZ27691 00156082
         AIF   ('&PRIPROT'(1,2) NE 'X''' OR '&PRIPROT'(5,1) NE '''').BI*00162082
               ERR                                             @OZ27691 00164082
&OPER    SETC  'SECPROT'                                       @OZ27691 00174082
         AIF   ('&SECPROT'(1,2) NE 'X''' OR '&SECPROT'(5,1) NE '''').BI*00180082
               ERR                                             @OZ27691 00184082
&OPER    SETC  'COMPROT'                                                00192000
         AIF   ('&COMPROT'(1,4) NE 'XL2''').BIERR                       00198000
&OPER    SETC  'TSUSAGE'                                                00204000
         AIF   ('&TSUSAGE'(1,4) NE 'XL6''').BIERR                       00210000
&OPER    SETC  'LUPROF'                                                 00216000
         AIF   ('&LUPROF'(1,2) NE 'X''' OR '&LUPROF'(5,1) NE '''').BIER*00222000
               R                                                        00228000
&OPER    SETC  'PRESERC'                                                00234000
         AIF   ('&PRESERC'(1,5) EQ 'XL11''').BISETLN           @YM06069 00240000
.BIERR   MNOTE 12,'*** IEDB04 &OPER MUST BE CODED IN HEX WITH THE CORRE*00246000
               CT LENGTH.'                                              00252000
&NOGO    SETB  1                                                        00258000
.BISETLN AIF   ('&USRDATA' NE '').BISTL USER DATA CODED                 00264000
&E       SETA  0                        NO USER DATA                    00270000
         AGO   .BILABEL                                                 00276000
.BISTL   ANOP                                                           00282000
&E       SETA  K'&USRDATA-3             LENGTH OF USER DATA             00288000
         AIF   ('&USRDATA'(1,2) EQ 'X''').BIHEX                         00294000
         AIF   ('&USRDATA'(1,2) EQ 'C''').BICHAR                        00300000
         MNOTE 12,'*** IEDBO5 USRDATA MUST BE CODED AS EITHER X''DATA''*00306000
                OR C''DATA''.'                                          00312000
&NOGO    SETB  1                                                        00318000
.BIHEX   ANOP                                                           00324000
&BIT     SETB  1                        TURN ON HEX DATA FLAG           00330000
&E       SETA  (&E+1)/2                 COUNT HEX BYTE                  00336000
.BICHAR  ANOP                                                           00342000
         AIF   ('&E' LE '255').BILABEL                                  00348000
         MNOTE 12,'*** IEDB06 USER DATA FIELD EXCEEDS THE 255 BYTE MAXI*00354000
               MUM.'                                                    00360000
&NOGO    SETB  1                                                        00366000
.BILABEL ANOP                                                           00366200
&LEN     SETA  38+&E                    BIND IMAGE LENGTH      @YM07701 00366400
.BLOGON  AIF   ('&LOGON' NE '').BLOGO LOGON DATA CODED         @YM07701 00366600
&H       SETA  0                        NO USER DATA           @YM07701 00366800
         AGO   .BLOGON1                                        @YM07701 00367000
.BLOGO   ANOP                                                  @YM07701 00367200
&H       SETA  K'&LOGON-3             LENGTH OF USER DATA      @YM07701 00367400
         AIF   ('&LOGON'(1,2) EQ 'X''').BLOGX                  @YM07701 00367600
         AIF   ('&LOGON'(1,2) EQ 'C''').BLOGR                  @YM07701 00367800
         MNOTE 12,'*** IEDBO7 LOGON MUST BE CODED AS EITHER X''DATA'' O*00368000
               R C''DATA''.'                                   @YM07701 00368200
&NOGO    SETB  1                                               @YM07701 00368400
.BLOGX   ANOP                                                  @YM07701 00368600
&BIT     SETB  1                        TURN ON HEX DATA FLAG  @YM07701 00368800
&H       SETA  (&H+1)/2                 COUNT HEX BYTE         @YM07701 00369000
.BLOGR   ANOP                                                  @YM07701 00369200
         AIF   ('&H' LE '255').BLOGON1                         @YM07701 00369400
         MNOTE 12,'*** IEDB08 LOG ON DATA FIELD EXCEEDS THE 255 BYTE MA*00369600
               XIMUM.'                                         @YM07701 00369800
&NOGO    SETB  1                                               @YM07701 00370000
.BLOGON1 ANOP                                                  @YM07701 00372000
&LEN     SETA  &LEN+&H                  BIND IMAGE LENGTH      @YM07701 00378000
         AIF   (&IEDBIG).BINFB          DEFAULT BIND IMAGE              00384000
&F       SETA  K'&NAME                  LENGTH OF &NAME                 00390000
         AIF   ('&F' NE '0').BINOGO     BI NAME MUST BE SPECIFIED       00396000
         MNOTE 12,'*** IEDB03 THE IEDBENT MACRO DOES NOT HAVE THE BIND *00402000
               IMAGE NAME AS ITS LABEL NAME.'                           00408000
&NOGO    SETB  1                                                        00414000
.BINOGO  AIF   (&NOGO).MEND             NOGO FLAG SET                   00420000
&NAME    EQU   *                                                        00426000
         DC    CL8'&NAME'               BI NAME                         00432000
         AGO   .BINAME                                                  00438000
.BINFB   ANOP                                                           00444000
&NAME    EQU   *                                                        00450000
         DC    CL8'        '            BLANK NAME FLD FOR DEFAULT      00456000
.BINAME  ANOP                                                           00462000
         DC    AL2(&LEN)                LENGTH OF BIND IMAGE            00468000
         DC    X'31'                    BIND RU CODE                    00474000
         DC    &FMTYPE                  FORMAT/TYPE                     00480000
         DC    &FMPROF                  FM PROFILE                      00486000
         DC    &TSPROF                  TS PROFILE                      00492000
         DC    &PRIPROT                 PRIMARY LU FM PROTOCOL @OZ27691 00498082
         DC    &SECPROT                 SECONDARY LU FM PROTOCO@OZ27691 00504082
         DC    &COMPROT                 COMMON LU PROTOCOLS             00510000
         DC    &TSUSAGE                 TS USAGE                        00516000
         DC    &LUPROF                  LU PROFILE                      00522000
         DC    &PRESERC                 PRESENTATION SERVICES CHAR      00528000
         DC    X'00'                    LENGTH IS ALWAYS ZERO  @OZ27691 00534082
         DC    X'08'                    PLU NAME LENGTH                 00540000
         DC    CL8'        '            PLU NAME 8 BLANK CHARACTERS     00546000
         DC    AL1(&E)                  USER DATA FIELD LENGTH          00552000
         AIF   ('&E' EQ '0').LOGO       NO USER DATA                    00558000
&E       SETA  K'&USRDATA-3             USER DATA INPUT LENGTH          00564000
&F       SETA  3                        START OF USER DATA INPUT        00570000
.BIUDC   AIF   ('&E' LE '52').BIUDCE    INPUT LENGTH > 52               00576000
&E       SETA  &E-52                    UPDATE INPUT LENGTH BY 52       00582000
         AGO   .BIUDC                   CHECK INPUT LENGTH              00588000
.BIUDCE  ANOP                                                           00594000
&USRD    SETC  '&USRDATA'(&F,&E)        SETUP USER DATA FIELD           00600000
         AIF   (&BIT).BIHEXL1           DC FOR HEX                      00606000
         DC    C'&USRD'                 USER DATA FIELD                 00612000
         AGO   .BIUDCG                                                  00618000
.BIHEXL1 ANOP                                                           00624000
         DC    X'&USRD'                 USER DATA FIELD                 00630000
.BIUDCG  ANOP                                                           00636000
&G       SETA  K'&USRDATA-3             USER DATA INPUT LENGTH          00642000
&F       SETA  &F+&E                    UPDATE STARTING POINT           00648000
&E       SETA  &G-&E                    SUBTRACT 52 LESS                00654000
.BIUDCF  AIF   ('&E' EQ '0').LOGO       INPUT LENGTH > 52               00660000
&USRD    SETC  '&USRDATA'(&F,52)        SETUP USER DATA FIELD           00666000
&F       SETA  &F+52                    UPDATE STARTING POINT           00672000
&E       SETA  &E-52                    UPDATE INPUT LENGTH BY 52       00678000
         AIF   (&BIT).BIHEXL            DC FOR HEX                      00684000
         DC    C'&USRD'                 USER DATA FIELD                 00690000
         AGO   .BIUDCF                  UPDATA THE LENGTH               00696000
.BIHEXL  ANOP                                                           00702000
         DC    X'&USRD'                 USER DATA FIELD                 00708000
         AGO   .BIUDCF                  CHECK INPUT LENGTH              00714000
.LOGO    ANOP                                                  @YM07701 00714200
         DC    AL1(&H)                  LOG ON DATA FIELD LEN  @YM07701 00714400
         AIF   ('&H' EQ '0').MEND       NO LOG ON DATA         @YM07701 00714600
&H       SETA  K'&LOGON-3               LOG ON DATA INPUT LEN  @YM07701 00714800
&F       SETA  3                        START OF LOG ON INPUT  @YM07701 00715000
.BLOGC   AIF   ('&H' LE '52').BLOGCE    INPUT LENGTH > 52      @YM07701 00715200
&H       SETA  &H-52                    UPDATE INPUT LENGTH    @YM07701 00715400
         AGO   .BLOGC                   CHECK INPUT LENGTH     @YM07701 00715600
.BLOGCE  ANOP                                                  @YM07701 00715800
&LOGD    SETC  '&LOGON'(&F,&H)        SETUP LOG ON DATA FIELD  @YM07701 00716000
         AIF   (&BIT).BLOGXL1           DC FOR HEX             @YM07701 00716200
         DC    C'&LOGD'                 LOG ON DATA FIELD      @YM07701 00716400
         AGO   .BLOGCG                                         @YM07701 00716600
.BLOGXL1 ANOP                                                  @YM07701 00716800
         DC    X'&LOGD'                 LOG ON DATA FIELD      @YM07701 00717000
.BLOGCG  ANOP                                                  @YM07701 00717200
&G       SETA  K'&LOGON-3             LOG ON DATA INPUT LENGTH @YM07701 00717400
&F       SETA  &F+&H                    UPDATE STARTING POINT  @YM07701 00717600
&H       SETA  &G-&H                    SUBTRACT 52 LESS       @YM07701 00717800
.BLOGCF  AIF   ('&H' EQ '0').MEND       INPUT LENGTH > 52      @YM07701 00718000
&LOGD    SETC  '&LOGON'(&F,52)        SETUP LOG ON DATA FIELD  @YM07701 00718200
&F       SETA  &F+52                    UPDATE STARTING POINT  @YM07701 00718400
&H       SETA  &H-52                    UPDATE INPUT LENGTH    @YM07701 00718600
         AIF   (&BIT).BLOGXL            DC FOR HEX             @YM07701 00718800
         DC    C'&LOGD'                 LOG ON DATA FIELD      @YM07701 00719000
         AGO   .BLOGCF                  UPDATA THE LENGTH      @YM07701 00719200
.BLOGXL  ANOP                                                  @YM07701 00719400
         DC    X'&LOGD'                 LOG ON DATA FIELD      @YM07701 00719600
         AGO   .BLOGCF                  UPDATA THE LENGTH      @YM07701 00719800
.MEND    MEND                                                           00720000
