         MACRO                                                          00007000
&NAME    IEDBTAB &DEFBI=BI3270,&CBI=                                    00014000
.*A000000-999999                                               @Y17XAFN 00021000
.*C001300,001400,001610,001820,002100,002300,002450,002660     @OZ27620 00021182
.*C002730,002940,003010,003220,003290,003500,003990,004060     @OZ27620 00021282
.*C004900,004970,005180,005250,005460,005670,005950,006160     @OZ27620 00021382
.*C006300,006510,006580,006790,007070,007350                   @OZ27620 00021482
.* &DEFBI - NAME OF DEFAULT BIND IMAGE OPERAND.                         00028000
.* &CBI   - NAME OF CANNED BIND IMAGE OPERAND.                          00035000
.* &SUBON - NUMBER OF CANNED BIND IMAGE SUB-OPERAND.                    00042000
.* &BIC   - CANNED BIND IMAGE COUNTER.                                  00049000
.* IEDBITN - NAME OF THE BIND IMAGE TABLE,AS IT IS DEFINED IN THE       00056000
.*           SECONDARY AVT.                                             00063000
         GBLB  &IEDBIG                                                  00070000
         LCLA  &SUBON,&BIC                                              00077000
         LCLC  &N                                                       00084000
&SUBON   SETA  N'&CBI                   NUMBER OF CBI SUB-OPERS         00091000
&IEDBIG  SETB  1                        SET ZERO NAME FIELD FLAG        00098000
&N       SETC  '&DEFBI'                 GET DEFAULT BI NAME             00105000
IEDBITN  CSECT                                                          00112000
         AIF   ('&DEFBI' EQ 'BI3270').BIDEF    DEFAULT BI CODED         00119000
         AIF   ('&DEFBI' NE 'BI3270NB').BI3601 3271 BI CODED            00126000
BI3270NB IEDBENT FMPROF=X'02',TSPROF=X'02',SECPROT=X'40',      @OZ27620X00133082
               COMPROT=XL2'0000',PRIPROT=X'20'                 @OZ27620 00140082
         AGO   .BICBI                   CHECK FOR CANNED BI             00147000
.BI3601  AIF   ('&DEFBI' NE 'BI3601').BI3614 3601 BI CODED              00154000
BI3601   IEDBENT SECPROT=X'F0'                                 @OZ27620 00161082
         AGO   .BICBI                   CHECK FOR CANNED BI             00168000
.BI3614  AIF   ('&DEFBI' NE 'BI3614').BI3767 3614 BI CODED              00175000
BI3614   IEDBENT FMPROF=X'04',TSPROF=X'04',SECPROT=X'30',      @OZ27620X00182082
               COMPROT=XL2'0040'                                        00189000
         AGO   .BICBI                   CHECK FOR CANNED BI             00196000
.BI3767  AIF   ('&DEFBI' NE 'BI3767').BI3770A 3767 BI CODED             00203000
BI3767   IEDBENT PRIPROT=X'B1',COMPROT=XL2'3040',              @OZ27620X00210082
               SECPROT=X'A0',LUPROF=X'01'                      @OZ27620 00212082
         AGO   .BICBI                   CHECK FOR CANNED BI             00217000
.BI3770A AIF   ('&DEFBI' NE 'BI3770A').EMU3790 3770 BI CODED            00224000
BI3770A  IEDBENT PRIPROT=X'B3',COMPROT=XL2'7080',              @OZ27620X00231082
               TSUSAGE=XL6'0001858580000',LUPROF=X'01',                X00238000
               PRESERC=XL11'1000000000000000000000',           @OZ27620X00245082
               SECPROT=X'A3'                                   @OZ27620 00247082
         AGO   .BICBI                   CHECK FOR CANNED BI             00252000
.EMU3790 AIF   ('&DEFBI' NE 'EMU3790').RJ3790A 3790 BI CODED            00259000
EMU3790  IEDBENT PRIPROT=X'B1',COMPROT=XL2'3080',              @OZ27620X00266082
               LUPROF=X'02',PRESERC=XL11'0200',SECPROT=X'B0'   @OZ27620 00273082
         AGO   .BICBI                   CHECK FOR CANNED BI             00280000
.RJ3790A AIF   ('&DEFBI' NE 'RJE3790A').RJ3790B 3790 BI CODED           00287000
RJE3790A IEDBENT PRIPROT=X'A3',COMPROT=XL2'7080',              @OZ27620X00294082
               LUPROF=X'01',PRESERC=XL11'1060F10080800000000000',      X00301082
               SECPROT=X'A3'                                   @OZ27620 00303082
         AGO   .BICBI                   CHECK FOR CANNED BI             00308000
.RJ3790B AIF   ('&DEFBI' NE 'RJE3790B').BTH3790 3790 BI CODED           00315000
RJE3790B IEDBENT PRIPROT=X'A3',COMPROT=XL2'7080',              @OZ27620X00322082
               LUPROF=X'01',PRESERC=XL11'1020F10080800000000000',      X00329082
               SECPROT=X'A3'                                   @OZ27620 00331082
         AGO   .BICBI                   CHECK FOR CANNED BI             00336000
.BTH3790 AIF   ('&DEFBI' NE 'BTCH3790').BIERR 3790 BI CODED             00343000
BTCH3790 IEDBENT TSPROF=X'04',PRIPROT=X'B1',SECPROT=X'B0',     @OZ27620X00350082
               COMPROT=XL2'7080',LUPROF=X'01',                         X00357000
               PRESERC=XL11'3118400000900800000050'                     00364000
         AGO   .BICBI                   CHECK FOR CANNED BI             00371000
.BIERR   MNOTE 8,'*** IEDB00 DEFBI OPERAND CODED INCORRECTLY,&N IS NOT *00378000
               AN ACCEPTABLE DEFAULT,BI3270 WAS GENERATED.'             00385000
.BIDEF   ANOP                                                           00392000
BI3270   IEDBENT FMPROF=X'02',TSPROF=X'02',PRIPROT=X'21',      @OZ27620X00399082
               SECPROT=X'40',COMPROT=XL2'2000'                 @OZ27620 00406082
.BICBI   ANOP                                                           00413000
&IEDBIG  SETB  0                        RESET ZERO NAME FIELD FLAG      00420000
         AIF   ('&CBI' EQ '').MEND CANNED BI CODED                      00427000
         AIF   ('&CBI'(1,1) EQ '(' OR 'SUBON' EQ '1').BISYN             00434000
         MNOTE 8,'*** IEDB01 SUB-OPERANDS MUST BE ENCLOSED BY PARENTHES*00441000
               ES,DEFAULT TO 1 SUB-OPERAND.'                            00448000
.BISYN   ANOP                                                           00455000
&BIC     SETA  1                                                        00462000
.BI3271C ANOP                                                           00469000
&N       SETC  '&CBI(&BIC)'                                             00476000
         AIF   ('&CBI(&BIC)' NE 'BI3270NB').BI3270C 3271 BI CODED       00483000
BI3270NB IEDBENT FMPROF=X'02',TSPROF=X'02',SECPROT=X'40',      @OZ27620X00490082
               COMPROT=XL2'0000',PRIPROT=X'20'                 @OZ27620 00497082
         AGO   .BISOPCK                 SUB OPERAND CHECK               00504000
.BI3270C AIF   ('&CBI(&BIC)' NE 'BI3270').BI3601C 3271 BI CODED         00511000
BI3270   IEDBENT FMPROF=X'02',TSPROF=X'02',PRIPROT=X'21',      @OZ27620X00518082
               SECPROT=X'40',COMPROT=XL2'2000'                 @OZ27620 00525082
         AGO   .BISOPCK                 SUB OPERAND CHECK               00532000
.BI3601C AIF   ('&CBI(&BIC)' NE 'BI3601').BI3614C 3601 BI CODED         00539000
BI3601   IEDBENT SECPROT=X'F0'                                 @OZ27620 00546082
         AGO   .BISOPCK                 CHECK FOR CANNED BI             00553000
.BI3614C AIF   ('&CBI(&BIC)' NE 'BI3614').BI3767C 3614 BI CODED         00560000
BI3614   IEDBENT FMPROF=X'04',TSPROF=X'04',SECPROT=X'30',      @OZ27620X00567082
               COMPROT=XL2'0040'                                        00574000
         AGO   .BISOPCK                 CHECK FOR CANNED BI             00581000
.BI3767C AIF   ('&CBI(&BIC)' NE 'BI3767').BI377AC 3767 BI CODED         00588000
BI3767   IEDBENT PRIPROT=X'B1',SECPROT=X'A0',                  @OZ27620X00595082
               LUPROF=X'01',COMPROT=XL2'3040'                  @OZ27620 00597082
         AGO   .BISOPCK                 SUB OPERAND CHECK               00602000
.BI377AC AIF   ('&CBI(&BIC)' NE 'BI3770A').EMU379C 3770 BI CODED        00609000
BI3770A  IEDBENT PRIPROT=X'B3',COMPROT=XL2'7080',              @OZ27620X00616082
               TSUSAGE=XL6'000185850000',LUPROF=X'01',                 X00623000
               PRESERC=XL11'1000000000000000000000',           @OZ27620X00630082
               SECPROT=X'A3'                                   @OZ27620 00632082
         AGO   .BISOPCK                 CHECK FOR CANNED BI             00637000
.EMU379C AIF   ('&CBI(&BIC)' NE 'EMU3790').RJ379AC 3790 BI CODED        00644000
EMU3790  IEDBENT PRIPROT=X'B1',COMPROT=XL2'3080',              @OZ27620X00651082
               LUPROF=X'02',PRESERC=XL11'0200',SECPROT=X'B0'   @OZ27620 00658082
         AGO   .BISOPCK                 CHECK FOR CANNED BI             00665000
.RJ379AC AIF   ('&CBI(&BIC)' NE 'RJE3790A').RJ379BC 3790 BI CODED       00672000
RJE3790A IEDBENT PRIPROT=X'A3',SECPROT=X'A3',                  @OZ27620X00679082
               COMPROT=XL2'7080',                              @OZ27620X00681082
               LUPROF=X'01',PRESERC=XL11'1060F10080800000000000'        00686000
         AGO   .BISOPCK                 CHECK FOR CANNED BI             00693000
.RJ379BC AIF   ('&CBI(&BIC)' NE 'RJE3790B').BTH379C 3790 BI CODED       00700000
RJE3790B IEDBENT PRIPROT=X'A3',SECPROT=X'A3',                  @OZ27620X00707082
               COMPROT=XL2'7080',                              @OZ27620X00709082
               LUPROF=X'01',PRESERC=XL11'1020F10080800000000000'        00714000
         AGO   .BISOPCK                 CHECK FOR CANNED BI             00721000
.BTH379C AIF   ('&CBI(&BIC)' NE 'BTCH3790').BIERR1 3790 BI CODED        00728000
BTCH3790 IEDBENT TSPROF=X'04',PRIPROT=X'B1',SECPROT=X'B0',     @OZ27620X00735082
               COMPROT=XL2'7080',LUPROF=X'01',                         X00742000
               PRESERC=XL11'3118400000900800000050'                     00749000
         AGO   .BISOPCK                 CHECK FOR CANNED BI             00756000
.BIERR1  MNOTE 8,'*** IEDB02 CBI OPERAND CODED INCORRECTLY,&N IS NOT AN*00763000
                ACCEPTABLE BIND IMAGE NAME.'                            00770000
.BISOPCK ANOP                                                           00777000
&SUBON   SETA  &SUBON-1                 DECREMENT SUB OPS BY ONE        00784000
&BIC     SETA  &BIC+1                   INCREMENT CANNED BI NUM BY 1    00791000
         AIF   ('&SUBON' NE '0').BI3271C LAST SUB OP CHECKED            00798000
.MEND    MEND                                                           00805000
