         MACRO                                                          00050000
&NAME    IEDBEND &TOTE=NO,&TSO=NO                                       00100000
.*A000000-999999                                               @Y17XAFN 00150000
.*C005500,007000,007500,011000,011600,012500,013100,014100     @OZ27691 00150182
.*C015100                                                      @OZ27691 00150282
.*C015100                                                      @OZ38859 00150382
.*C011500,013000                                               @OZ40246 00150482
.* &TOTE - THIS OPERAND DETERMINES IF THE TOTE BIND IMAGES SHOULD BE    00200000
.*         INCLUDED IN THE BIND IMAGE TABLE.                            00250000
.* &TSO - THIS OPERAND DETERMINES IF THE TSO BIND IMAGES SHOULD BE      00300000
.*        INCLUDED IN THE BIND IMAGE TABLE.                             00350000
.* THE IEDBEND MACRO ALSO ENDS THE BIND IMAGE TABLE WITH A X'FF'.       00400000
         AIF   ('&TOTE' NE 'YES').BITOTNO INCLUDE TOTE BI               00450000
         ENTRY IEDTOTB1                                                 00500000
IEDTOTB1 IEDBENT PRIPROT=X'A1',SECPROT=X'90',COMPROT=XL2'3080',        *00550082
               LUPROF=X'01',TSUSAGE=XL6'000185850100'                   00600000
         ENTRY IEDTOTB2                                                 00650000
IEDTOTB2 IEDBENT FMPROF=X'02',TSPROF=X'02',                    @OZ27691*00700082
               COMPROT=XL2'2000',TSUSAGE=XL6'000185850100',    @YM08396X00750082
               SECPROT=X'40',PRIPROT=X'21'                     @OZ27691 00750182
         AGO   .BITSO                    CHECK FOR TSO=YES              00800000
.BITOTNO AIF   ('&TOTE' EQ 'NO').BITSO    DO NOT INCLUDE TSO BI         00850000
         MNOTE 8,'*** IEDB05 TOTE OPERAND INCORRECTLY DEFINED, DEFAULT *00900000
               TO TOTE=NO.'                                             00950000
.BITSO   AIF   ('&TSO' NE 'YES').BITSONO  INCLUDE TSO BI                01000000
         ENTRY IEDTSOB0                                                 01050000
IEDTSOB0 IEDBENT FMPROF=X'02',TSPROF=X'02',PRIPROT=X'21',              X01100082
               COMPROT=XL2'2000',TSUSAGE=XL6'000000000000',    @OZ40246X01150082
               LOGON=C'   LOGON ',SECPROT=X'40'                @OZ27691 01160082
         ENTRY IEDTSOB1                                                 01200000
IEDTSOB1 IEDBENT PRIPROT=X'A1',SECPROT=X'90',COMPROT=XL2'3040',        X01250082
               TSUSAGE=XL6'000085850000',LUPROF=X'01',         @OZ40246X01300082
               LOGON=C'LOGON '                                 @OZ27691 01310082
         ENTRY IEDTSOB2                                                 01350000
IEDTSOB2 IEDBENT PRIPROT=X'B1',SECPROT=X'B0',COMPROT=XL2'3080',        X01400082
               TSUSAGE=XL6'000085850000',LUPROF=X'02',         @ZM47842X01420000
               PRESERC=XL11'0200',                             @ZM47842X01440000
               LOGON=C'     LOGON '                            @OZ38859 01510082
         AGO   .BITBEND                   END THE BI TABLE              01550000
.BITSONO AIF   ('&TSO' EQ 'NO').BITBEND   DO NOT INCLUDE TSO BI         01600000
         MNOTE 8,'*** IEDB07 TSO OPERAND INCORRECTLY DEFINED, DEFAULT T*01650000
               O TSO=NO.'                                               01700000
.BITBEND ANOP                                                           01750000
         DC    X'FF'                    DELIMITER FOR END OF BI TABLE   01800000
         END                                                            01850000
.MEND    MEND                                                           01900000
