         MACRO                                                          03000010
&LABEL   IEDFTAB                                                        06000010
         GBLB  &IEDFBIN                                                 09000010
         GBLB  &IEDVAL(255)                                             12000010
         LCLC  &NAME                    NAME ON CSECT CARD              15000010
.*A000000-999999                                               @Y17XAFF 18000010
&NAME    SETC  'IEDFSSTB'               USE USER'S NAME IF CODED        21000010
         AIF   ('&LABEL' EQ '').A0010                                   24000010
&NAME    SETC  '&LABEL'                                                 27000010
.A0010   ANOP                                                           30000010
&NAME    TITLE 'FSS-USS CONVERSION TABLE'                               33000010
&NAME    CSECT                                                          36000010
         DC    AL1(FSSTYPE)             FSS-USS TABLE INDICATOR         39000010
&IEDFBIN   SETB  1                                                      42000010
&IEDVAL(8)  SETB 1                       SET VALID ID                   44000010
&IEDVAL(16) SETB 1                        INDICATORS                    46000010
&IEDVAL(32) SETB 1                                                      48000010
&IEDVAL(33) SETB 1                                             @YM06472 50000010
&IEDVAL(49) SETB 1                                             @YM06472 52000010
&IEDVAL(64) SETB 1                                                      54000010
&IEDVAL(128) SETB 1                                                     56000010
         SPACE                                                          60000010
         MEND                                                           63000010
