         MACRO                                                          00000110
&NAME    IEDMHGEN &TOTE=NO,&SSCP=YES                                    00000210
.*A-000000-999999                                              @Y17XAMN 00000310
.* &IEDQRN(8) - FEATURE FLAGS (&IEDQRN(1) - MH3705 FEATURE CODED        00000410
.* &IEDNCT - NUMBER OF TOTE ENTRIES                                     00000510
         GBLA  &IEDNCT                                                  00000610
         GBLB  &IEDQRN(8)                                               00000710
         AIF   ('&SSCP' NE 'YES').SSCPNO SSCP=YES?                      00000810
         AIF   (NOT &IEDQRN(1)).SSCPERR MH3705 FEATURE CODED?           00000910
         IEDSCPMH                                                       00001010
         AGO   .CHKTOTE                                                 00001110
.SSCPERR MNOTE 12,'*** IED060 SSCP MH INVALID FOR DEFINED MCP.'         00001210
         AGO   .CHKTOTE                                                 00001310
.SSCPNO  AIF   ('&SSCP' EQ 'NO').CHKTOTE                                00001410
         MNOTE 12,'*** IED061 INVALID SSCP OPERAND.'                    00001510
.CHKTOTE AIF   ('&TOTE' NE 'YES').TOTENO TOTE=YES?                      00001610
         AIF   ('&IEDNCT' EQ '0' ).TOTEERR ANY TOTE ENTRIES?            00001710
         IEDTOTMH                                                       00001810
         AGO   .MEND                                                    00001910
.TOTEERR MNOTE 12,'*** IED062 TOTE MH INVALID FOR DEFINED MCP.'         00002010
         AGO   .MEND                                                    00002110
.TOTENO  AIF   ('&TOTE' EQ 'NO').MEND                                   00002210
         MNOTE 12,'*** IED063 INVALID TOTE OPERAND.'                    00002310
.MEND    MEND                                                           00002410
