         MACRO                                                          02000010
&NAME    IEDNOL &P                                                      04000010
         GBLA  &IEDNCT,&IEDQAR(64)                                      06000010
         GBLB  &IEDQCOD(8),&IEDQRN(8)                          @Y17XAFF 07000010
         LCLA  &A,&B,&C                                                 08000010
         LCLC  &CSECT                                                   10000010
.*A040000,100000                                               @Y17XAFF 10100010
         AIF   (NOT &IEDQRN(1)).NOL20   IF NOT 3705 SYSTEM,BRCH@Y17XAFF 10200010
         AIF   (&IEDQCOD(5)).NOL10      HAS SSCP TTE BEEN CODED@Y17XAFF 10300010
         MNOTE 8,'*** IED910 MUST CODE A SSCP TERMINAL MACRO FOR THE   *10400010
               DEFINED SYSTEM.'                                @Y17XAFF 10500010
.NOL10   AIF   (&IEDQCOD(4)).NOL20      HAS LNCP TTE BEEN CODED@Y17XAFF 10600010
         MNOTE 8,'*** IED911 MUST CODE A NCP  TERMINAL MACRO FOR THE   *10700010
               DEFINED SYSTEM.'                                @Y17XAFF 10800010
.NOL20   ANOP                                                  @Y17XAFF 10900010
&CSECT   SETC  '&SYSECT'                                                11000010
         AIF   (&IEDNCT NE 0).BRANCH                                    12000010
         SPACE 2                                                        12600010
IEDQTNT  CSECT                                                          13200010
         DC    XL1'0'                                                   14000010
&CSECT   CSECT                                                          15000010
         AGO   .EXIT                                                    16000010
.BRANCH  ANOP                                                           18000010
&A       SETA  &IEDQAR(1)-3                                             20000010
&B       SETA  &A-1                                                     22000010
         SPACE 2                                                        26000010
IEDQTNT  CSECT                                                          28000010
         DC    AL1(&IEDNCT)                                             30000010
         DC    AL3(IEDNOLTM)                                            32000010
         AIF   (&B EQ 0).SKIP                                           34000010
         DC    CL&B' '                                                  36000010
.SKIP    ANOP                                                           38000010
&C       SETA  1                                                        40000010
.ENT1    AIF   (&IEDNCT EQ &C).GEN                                      42000010
         DC    CL&A' ',AL3(0)                                           44000010
&C       SETA  &C+1                                                     46000010
         AGO   .ENT1                                                    48000010
.GEN     ANOP                                                           50000010
         SPACE 1                                                        52000010
&CSECT   CSECT                                                          54000010
IEDNOLTM DS    0F                                                       56000010
&C       SETA  0                                                        58000010
.ENT2    AIF   (&IEDNCT EQ &C).EXIT                                     60000010
         DC    XL210'0'                                        @Y17XAFF 62000010
&C       SETA  &C+1                                                     64000010
         AGO   .ENT2                                                    66000010
.EXIT    ANOP                                                           68000010
         MEND                                                           70000010
