         MACRO                                                          03000010
&NAME    IEDPSTOP &MSK,&CONNECT=OR,&CLEAR=YES,&UPDATE=ADD,&INTVL=,     X06000010
               &COUNT=                                                  09000010
.*A-000000-999999                                              @XA09783 12000010
.*               VERSION DATED MAY 30, 1975                    @XA09783 15000010
         GBLB  &IEDQZA(64),&IEDNO                              @YM07267 18000010
&IEDNO   SETB  0                        RESET ERROR FLAG       @YM07267 19000010
         AIF   (&IEDQZA(5)).PSOK                                        21000010
         MNOTE 12,'*** IHB070  SEQUENCE ERROR - MUST FOLLOW INMSG OR OUX24000010
               TMSG MACRO'                                              27000010
.PSOK    ANOP                                                           30000010
&NAME    IEDQJN &MSK,&CONNECT,&CLEAR,&UPDATE,&INTVL,&COUNT,,,P          33000010
         MEND                                                           36000010
