         MACRO                                                          02000022
&NAME    IEDQDID &DVCID,&B=(0,1,2)                                      04000022
.*060000,680000                                                  Y01004 06000010
         GBLA  &IEDQAR(64)                                              08000022
         LCLC  &IEDQIDN                                                 10000022
         LCLA  &L,&D,&O                                                 12000022
         SPACE 1                                                        14000022
IEDQDVCC CSECT                                                          16000022
&O       SETA  82-&IEDQAR(1)                                            18000022
&IEDQIDN  SETC 'IED'.'&IEDQAR(45)'.'&B(&IEDQAR(44))'                    20000022
         AIF   ( '&DVCID' NE 'CONC').ID1                                22000022
         CNOP  0,4                                                      24000022
&IEDQIDN   DC  XL2'0',AL1(&IEDQAR(47)),X'0'  CONTROL WORD               26000022
&D       SETA  &IEDQAR(47)-4                                            28000022
         DC    X'01',X'FF'  CONC DVCID                                  30000022
         DC    AL2((&NAME-IEDQTNT-&O)/&IEDQAR(1))  CONC TNT OFFSET      32000022
         AGO   .IDEND                                                   34000022
.ID1     ANOP                                                           36000022
&L       SETA  (K'&DVCID+1)/2                                           38000022
&D       SETA  (&IEDQAR(47)-(&L+3))                                     40000022
         ORG   *-1  OVERLAY PREVIOUS END OF TABLE                       42000022
&IEDQIDN DC    X'&L',XL&L'&DVCID'  ATTACHED TRM DVCID                   44000022
         DC    AL2((&NAME-IEDQTNT-&O)/&IEDQAR(1))  ATT TRM TNT OFFSET   46000022
.IDEND   ANOP                                                           48000022
         AIF   (&D EQ 0).FIN                                            50000022
         DC    XL&D'0'  FILLER                                          52000022
.FIN     ANOP                                                           54000022
         DC    X'FE'  END OF TABLE                                      56000022
&IEDQAR(45) SETA &IEDQAR(45)+1                                          58000022
         AIF   ( &IEDQAR(45) LE 9999).IDE2                              60000022
&IEDQAR(44) SETA &IEDQAR(44)+1                                          62000022
.IDE2    ANOP                                                           64000022
         SPACE 1                                                        66000022
IEDQTRMC CSECT                                                   Y01004 68000010
         MEND                                                           70000022
