         MACRO                                                          03000022
&NAME    IEDQTT &A=(A,B,C,D,E,F),&X=0,&TAC=0,&ACTV=,&GPCU=,    @SA05843X06000000
               &ALIAS=,&TERM=,&SPECOUT=,&UTERM=,&TCMSESN=      @Y17XAFF 06300000
.*A-000000-999999                                              @X31X8F0 06600008
         GBLA  &IEDQAR(64)                                              07200000
         GBLB  &IEDQFL(16) .                                     S22025 09800000
         GBLB  &IEDQCOD(8),&IEDQZA(64)                         @Y17XAFF 12800000
         GBLC  &IEDQSV(8),&IEDQCTM .                             S22025 13800000
         LCLA  &B,&L                                             Y05330 15800000
         LCLC  &TYPE                                           @Y17XAFF 18800000
         LCLB  &B0,&B1,&B2,&B3,&B4,&B5,&B6,&B7                 @Y17XAFF 19800000
.*C060000,110000-130000,420000                                   S22025 20800000
.*A400000-410000                                                 S22025 21800000
.*C840000                                                        X02004 22300000
.*A380000,780000                                                 Y05330 22800000
.*C060000,180000                                                 Y05330 23300000
.*D846000-850000                                                 X03039 23800000
.*A060000                                                      @Z30X8FG 24300000
.*A062000,853000                                               @X50X9FH 24800000
.*C060000,190000,856000                                        @X50X9FH 25800000
.*C063000,190000,842000-862000                                 @Y17XAFF 26100000
.*A120000                                                      @Y17XAFF 26400000
.*C060000                                                      @SA05843 26600000
.*C849980,850040                                               @OZ33565 26600182
&IEDQAR(4)  SETA  &IEDQAR(4)+1                                          26800000
         AIF   (&IEDQAR(4) LE 9999).SP                                  27800000
&IEDQAR(4)  SETA  0                                                     30800000
&IEDQAR(7)  SETA  &IEDQAR(7)+1                                          33800000
.SP      SPACE 1                                                        36800000
&L       SETA  N'&ALIAS+1                                        Y05330 39800000
IEDQTNT  CSECT                                                          40800000
&B       SETA  &IEDQAR(1)-3                                             42800000
&IEDQSV(1)  SETC  'IED'.'&IEDQAR(4)'.'&A(&IEDQAR(7))'                   45800000
         AIF   (&IEDQFL(9) AND &TAC NE 0).NCTRM .                S22025 48800000
&IEDQCTM SETC '&IEDQSV(1)' .                                     S22025 51800000
.NCTRM   AIF   ('&X' NE '0').SPC .                               S22025 54800000
&NAME    DC    CL&B'&NAME'  .   ENTRY NAME                              57800000
         AGO    .COM                                                    60800000
.SPC     ANOP                                                           63800000
&IEDQSV(1)  SETC  '&NAME'                                               66800000
&IEDQSV(8)  SETC  'IED&IEDQAR(4).&A(&IEDQAR(7))'                        69800000
IED&IEDQAR(4).&A(&IEDQAR(7)) DC  CL&B'&NAME'                            72800000
.COM     DC    AL3(&IEDQSV(1))                                          78000022
&L       SETA  &L-1                                              Y05330 78300005
         AIF   (&L EQ 0).DECAL                                   Y05330 78600005
         AIF   ('&ALIAS(&L)'(1,1) NE '''').CLC                   Y05330 78900005
         DC    XL&B*2&ALIAS(&L)         HEX ALIAS                Y05330 79200005
         AGO   .COM                                              Y05330 79500005
.CLC     ANOP                                                    Y05330 79800005
&ALIAS(&L) DC  CL&B'&ALIAS(&L)'         ALIAS NAME               Y05330 80100005
         AGO   .COM                                              Y05330 80400005
.DECAL   ANOP                                                    Y05330 80700005
         SPACE 1                                                        81000022
IEDQTRMC CSECT                                                   X02004 84000004
.*                                                             @Y17XAFF 84200000
.*       CREATE TTE PREFIX IF NECESSARY                        @Y17XAFF 84230000
.*                                                             @Y17XAFF 84260000
         AIF   (NOT &IEDQZA(63)).A100                          @Y17XAFF 84290000
         CNOP  2,4                                             @Y17XAFF 84320000
.*       SETUP TRMBYTE4                                        @Y17XAFF 84350000
&B6      SETB  0                        INITIALIZE BIT 6       @Y17XAFF 84355000
.*       IS IT PRE-SNA                                         @Y17XAFF 84380000
         AIF   ('&TERM' EQ 'LNCP' OR '&TERM' EQ 'SSCP' OR              *84410000
               '&TERM' EQ 'PUNT' OR '&TERM' EQ 'LUNT').A001    @Y17XAFF 84440000
.*       SETUP TRMSPOUT                                        @Y17XAFF 84470000
&B6      SETB  ('&SPECOUT' EQ 'YES' AND '&UTERM' EQ 'NO')      @Y17XAFF 84500000
.A001    ANOP                                                  @Y17XAFF 84530000
         DC    B'000000&B6.0' .         TRMBYTE4               @Y17XAFF 84560000
.*       SETUP TRMBYTE3                                        @Y17XAFF 84590000
&B0      SETB  0                        INITIALIZE BIT 0       @Y17XAFF 84591000
&B1      SETB  0                        INITIALIZE BIT 1       @Y17XAFF 84592000
&B2      SETB  0                        INITIALIZE BIT 2       @Y17XAFF 84593000
&B7      SETB  0                        INITIALIZE BIT 7       @Y17XAFF 84603000
.*       SETUP TRMLUTM                                         @Y17XAFF 84620000
         AIF   ('&TERM' NE 'LUNT' OR '&ACTV(2)' NE 'YES').A003 @XM05694 84623000
         AIF   ('&TCMSESN' EQ 'LUTERM').A002                   @XM05694 84626000
         MNOTE 4,'IED997 IF AUTO BIND IS SPECIFIED, WILL FORCE TCMSESN=*84629000
               LUTERM FOR LU.'                                 @XM05694 84632000
.A002    ANOP                                                  @XM05694 84635000
&B2      SETB  1                                               @XM05694 84638000
         AGO   .A004                                           @XM05694 84641000
.A003    ANOP                                                  @XM05694 84644000
&B2      SETB  ('&TERM' EQ 'LUNT' AND ('&TCMSESN' EQ 'LUTERM'          *84650000
               OR '&ACTV(2)' EQ 'YES'))                        @XM05694 84660000
.A004    ANOP                                                           84670000
.*       SETUP TRMLUIT                                         @Y17XAFF 84680000
&B1      SETB  ('&TERM' EQ 'LUNT' AND '&TCMSESN' EQ 'LUINIT')  @Y17XAFF 84710000
         AIF   (NOT &B1).A005           LUINIT IMPLIES LUTERM  @Y17XAFF 84713000
&B2      SETB  1                        SET LUTERM BIT         @Y17XAFF 84716000
.*       SETUP TRMAUTO                                         @Y17XAFF 84740000
.A005    ANOP                                                  @Y17XAFF 84745000
&B7      SETB  ('&TERM' EQ 'LUNT')                             @Y17XAFF 84770000
&B0      SETB  ('&TERM' EQ 'LUNT' AND '&ACTV(2)'   EQ 'YES')   @Y17XAFF 84780000
         AIF   ('&TERM' NE 'LNCP').A010                        @YM08462 84783000
&B2      SETB  ('&ACTV(1)'   EQ 'YES' OR T'&ACTV EQ 'O')       @YM08462 84791000
.A010    ANOP                                                  @Y17XAFF 84800000
         DC    B'&B0&B1&B2.0000&B7' .   TRMBYTE3               @Y17XAFF 84830000
.*       SETUP TRMBYTE2                                        @Y17XAFF 84860000
&B0      SETB  0                        INITIALIZE BIT 0       @Y17XAFF 84863000
&B1      SETB  0                        INITIALIZE BIT 1       @Y17XAFF 84866000
.*       SETUP TRMREMB                                         @Y17XAFF 84890000
         AIF   ('&TERM' EQ 'SSCP').A020 NO ACTV CHK FOR SSCP   @PI02855 84900000
         AIF   (&IEDQCOD(2)).A014 .     IF LINE'S BEEN CODED   @Y17XAFF 84920000
.*                                        LOOK ONLY AT ACTV(1) @Y17XAFF 84950000
&B1      SETB  ('&UTERM' EQ 'YES')                             @PI02855 84980000
         AIF   (&B1).A020               IF UTERM EQ YES DO NOT @PI02855 84986000
.*                                       CHECK ACTV            @PI02855 84992000
&B1      SETB  (('&ACTV(1)' EQ 'YES' OR T'&ACTV EQ 'O') AND '&UTERM'   *84998082
               NE 'IDLE')                                      @OZ33565 85002082
         AGO   .A020 .                  OTHERWISE LOOK AT UTERM@Y17XAFF 85010000
.A014    ANOP                             ALSO                 @Y17XAFF 85040000
&B1      SETB  ('&ACTV(1)' EQ 'YES' OR T'&ACTV EQ 'O')         @Y17XAFF 85070000
         AIF   ('&UTERM' NE 'IDLE' OR '&TERM' NE 'LINE').A020 @ZM04782  85100000
         MNOTE 4,'*** IED998 IMPROPER USE OF UTERM=IDLE.  OPERAND IGNOR*85105000
               ED.'                                            @Y17XAFF 85160000
.A020    ANOP                                                  @Y17XAFF 85190000
.*       SETUP TRMRSACT                                        @Y17XAFF 85220000
&B0      SETB  ('&TERM' EQ 'SSCP')                             @Y17XAFF 85250000
         AIF   ('&TERM' EQ 'SSCP' OR '&TERM' EQ 'LUNT' OR              *85253000
                '&TERM' EQ 'PUNT' OR '&TERM' EQ 'LINE' OR              *85256000
                '&TERM' EQ 'LNCP').A025                        @Y17XAFF 85259000
         AIF   ('&UTERM' NE 'NO' AND NOT &IEDQCOD(2)).A025     @Y17XAFF 85262000
&B0      SETB  (&B1)                    MAKE TRMRSACT THE      @Y17XAFF 85265000
&B1      SETB  0                         ACTIVE=YES BIT IF IT  @Y17XAFF 85268000
.A025    ANOP                            IS A NCP PRE-SNA TERM @Y17XAFF 85271000
         DC    B'&B0&B1.000000' .       TRMBYTE2               @Y17XAFF 85280000
.*       SETUP TRMBYTE1                                        @Y17XAFF 85340000
         DC    B'00000000' .            TRMBYTE1               @Y17XAFF 85400000
         DC    H'0' .                   TRMCOHRT               @Y17XAFF 85430000
.*       SETUP TRMBYTE0                                        @Y17XAFF 85490000
&B1      SETB  0 .                      INITIALIZE BIT 1       @Y17XAFF 85491000
&B2      SETB  0 .                      INITIALIZE BIT 2       @Y17XAFF 85492000
&B6      SETB  0                        INITIALIZE BIT 6       @Y17XAFF 85493000
&B7      SETB  0                        INITIALIZE BIT 7       @Y17XAFF 85494000
.*       SETUP TRMINPUT                                        @Y17XAFF 85495000
&B1      SETB  ('&TERM' EQ 'LUNT' OR '&TERM' EQ '327C')        @Y17XAFF 85496000
.*       SETUP TRMOUTPT                                        @Y17XAFF 85497000
&B2      SETB  ('&TERM' EQ 'LUNT')                             @Y17XAFF 85498000
.*       SETUP TRMBUFRD                                        @Y17XAFF 85550000
&B7      SETB  (('&TERM' EQ '274I' OR '&TERM' EQ '274J' OR '&TERM' EQ  *85580000
               '277A' OR '&TERM' EQ '277B') AND ('&UTERM' EQ 'NO' OR   *85610000
               &IEDQCOD(2)))                                   @Y17XAFF 85640000
.*       SETUP TRMSNA                                          @Y17XAFF 85670000
&B6      SETB  ('&TERM' EQ 'LNCP' OR '&TERM' EQ 'PUNT' OR '&TERM' EQ   *85700000
               'LUNT' OR '&TERM' EQ 'SSCP')                    @Y17XAFF 85730000
         DC    B'0&B1&B2.000&B6&B7' .   TRMBYTE0               @Y17XAFF 85760000
.*                                                             @Y17XAFF 85790000
         DC    AL3(0) .                 TRMSIBPT/TRMGPCNT/     @Y17XAFF 85820000
*                                        TRMCOHTG              @Y17XAFF 85825000
         DC    XL1'00' .                TRMRLMCT               @Y17XAFF 85850000
.*                                                             @Y17XAFF 85880000
.*       DEFINE TRMTYPE                                                 85910000
.*                                                             @Y17XAFF 85940000
&TYPE    SETC  '4F'                     INITIALIZE TO TRMPSNA  @Y17XAFF 85970000
         AIF   ('&UTERM' EQ 'NO').A030                         @Y17XAFF 86000000
         AIF   (&IEDQCOD(2)).A030                              @Y17XAFF 86030000
&IEDQCOD(6) SETB 1                      CODED UTERM= FOR       @Y17XAFF 86033000
.*                                        LINE DEFINITION      @Y17XAFF 86036000
&TYPE    SETC  '20'                     SET TRMNSDLC           @Y17XAFF 86060000
         AGO   .A040                                           @Y17XAFF 86090000
.A030    AIF   ('&TERM' NE 'LNCP').A031                        @Y17XAFF 86120000
&TYPE    SETC  '0F'                     SET TRMLNCP            @Y17XAFF 86150000
         AGO   .A040                                           @Y17XAFF 86180000
.A031    AIF   ('&TERM' NE 'PUNT').A032                        @Y17XAFF 86210000
&TYPE    SETC  '18'                     SET TRMPUNT            @Y17XAFF 86240000
         AGO   .A040                                           @Y17XAFF 86270000
.A032    AIF   ('&TERM' NE 'LUNT').A033                        @Y17XAFF 86300000
&TYPE    SETC  '30'                     SET TRMLUNT            @Y17XAFF 86330000
         AGO   .A040                                           @Y17XAFF 86360000
.A033    AIF   ('&TERM' NE 'LINE').A034                        @Y17XAFF 86390000
         AIF   (NOT &IEDQCOD(6)).A0331  CANNOT INTERMIX LINE   @Y17XAFF 86390800
.*                                        DEFINITIONS          @Y17XAFF 86391600
         MNOTE 8,'*** IED996 ALL LINES WITHIN GROUP SHOULD BE DEFINED  *86392400
               WITH TERM=LINE OR UTERM=YES'                    @Y17XAFF 86393200
.A0331   ANOP                                                  @Y17XAFF 86394000
&TYPE    SETC  '20'                     SET TRMNSDLC           @Y17XAFF 86420000
         AGO   .A040                                           @Y17XAFF 86450000
.A034    AIF   ('&TERM' NE 'SSCP').A039                        @Y17XAFF 86480000
&TYPE    SETC  'FF'                     SET TRMSSCP            @Y17XAFF 86510000
.A039    AIF   ('&TERM' NE '327C').A040                        @Y17XAFF 86540000
&TYPE    SETC  '40'                     SET TRMCLUST           @Y17XAFF 86570000
.A040    ANOP                                                  @Y17XAFF 86600000
         DC    XL1'&TYPE' .             TRMTYPE                @Y17XAFF 86630000
.*                                                             @Y17XAFF 86660000
         DC    H'0' .                   TRMSUBST               @Y17XAFF 86690000
.A100    ANOP                                                  @Y17XAFF 86720000
&IEDQSV(1)  DS  0F                                                      87000022
&IEDQSV(1) SETC '&NAME'                                                 90000022
         MEND                                                           93000022
