         MACRO                                                          00003000
&NAME    IEDRESP &MASK,&CONNECT=OR,&SENSE=,&CLEAR=YES,&UPDATE=ADD,&COUNX01003000
               T=,&BLANK=,&OVERIDE=NO,&HOLD=NO,&SNAVALS=                02003082
.*A000000-999999                                                        03003000
.*C150030                                                      @OY16455 03053000
.*A120030,420030,422530,440030                                 @OZ41631 03053182
.*C020030,130030,150030,170030,320030-340030,390030            @OZ41631 03053282
.*C080030-090030                                               @OZ41631 03053382
         GBLA  &IEDQZE(64),&IEDQZL(256)                                 04003000
         GBLB  &IEDQZA(64),&IEDNO                                       05003000
         GBLC  &IEDQSV(8)                                               06003000
         LCLA  &FLG,&OPT,&LEN                                           07003000
         LCLA  &OPS                                                     08003082
         LCLC  &OP,&OPSN                                                08053082
         LCLB  &X,&Y,&VALOP                                             08103082
         SPACE                                                          10003000
         IEDQVCON 65,IEDQRS                                    @YM07693 10503000
&OP      SETC  '0'                  ASSUME OPFIELD NOT CODED            11003000
&IEDNO   SETB  0                    CLEAR NOGO SWITCH                   12003000
&FLG     SETA  &FLG+&IEDQZA(4)      SET FLAG IF OUTHDR         @OZ41631 12053082
        AIF    (&IEDQZA(1) OR &IEDQZA(4)).CKHO  INMH OR OUTHDR @OZ41631 13003082
         MNOTE 12,'*** IHB070  SEQUENCE ERROR - MUST FOLLOW INMSG,INHDRX14003000
               ,INBUF OR OUTHDR MACRO'                         @OZ41631 15003082
&IEDNO   SETB  1                    SET NOGO                            16003000
.CKHO    AIF   ('&HOLD' NE 'YES').CKY  CHECK IF YES            @OZ41631 17303082
&FLG     SETA  &FLG+2                  INDICATE HOLD=YES       @OZ41631 17353082
         AIF   (&IEDQZA(5) OR  &IEDQZA(4)).REHL IF INMSG/OUTHDR@OZ41631 17403082
         AIF   ('&CONNECT' EQ 'OR' AND '&SENSE' EQ '' AND '&OVERIDE' EQX17453082
                'NO').SBOK                                     @OZ41631 17503082
         MNOTE 4,'*** IHB070 EXTRANEOUS OPERANDS IGNORED'      @OZ41631 17553082
         AGO   .OK1                  BYPASS OTHER CHECKS       @OZ41631 17603082
.REHL    ANOP                                                  @OZ41631 17653082
&FLG     SETA  &FLG-2                  INDICATE HOLD=NO        @OZ41631 17703082
.CKY     AIF   ('&HOLD' EQ 'NO').SBOK IF HOLD=NO               @OZ41631 17753082
         MNOTE 4,'*** IHB303 INVALID OPERAND HOLD=&HOLD, NO ASSUMED'    17803082
.SBOK    AIF   ('&SENSE' EQ '').NOSEN  IF SENSE OMITTED        @OZ41631 17853082
&FLG     SETA  &FLG+32              SETUP FLAG FOR SENSE=               18003000
&X       SETB  1                    INDICATE SENSE= CODED               19003000
         AIF   ('&SENSE'(K'&SENSE,1) NE '''').CKRG    HEX NOTATION      20003000
     AIF   (K'&SENSE EQ 13 AND '&SENSE'(1,4) EQ 'XL4''').XSENS @YM07693 21003000
     AIF   (K'&SENSE EQ 11 AND '&SENSE'(1,2) EQ 'X''').XSENS   @YM07693 22003000
         MNOTE 12,'*** IHB300 SENSE OPERAND INVALID AS SPECIFIED'       23003000
&IEDNO   SETB  1                    SET NOGO                            24003000
.CKRG    AIF   ('&SENSE'(1,1) EQ '(').RGSENS  REGISTER NOTATION         25003000
         IEDQVCON 31,IEDQAE                                    @YM07693 26003000
&OPT     SETA  &IEDQZE(31)          SAVE INDEX TO IEDQAE                27003000
&OP      SETC  '&SENSE'             SAVE OPFIOELD NAME                  28003000
         AGO   .XSENS                                                   29003000
.RGSENS  ANOP                                                           30003000
&Y       SETB  1                    INDICATE SENSE=(REGISTER)           31003000
         AIF   (NOT &IEDQZA(5)).XSENS   NOT IN INMSG           @OZ41631 32003082
         MNOTE 12,'*** IED904 SENSE= (REG) SHOULD ONLY BE USED IN THE  *32053082
               INBUF, INHDR OR OUTHDR SUBGROUP'                @OZ41631 32103082
&IEDNO   SETB  1                    SET NOGO                            35003000
.XSENS   ANOP                                                           36003000
&LEN     SETA  &LEN+4               ALLOW FOR SENSE=                    37003000
         AGO   .NOOK                                                    38003000
.NOSEN   AIF   (&IEDQZA(5) OR '&HOLD' EQ 'YES' OR &IEDQZA(4)).NOOK      39003082
         MNOTE 12,'*** IHB002 SENSE OPERAND REQ''D, NOT SPECIFIED'      40003000
&IEDNO   SETB  1                    SET NOGO                            41003000
.NOOK    ANOP                                                           42003000
         AIF   ('&OVERIDE' EQ 'NO').OK1                        @OZ41631 42053082
&FLG     SETA  64+&FLG              SET OVERRIDE FLAG          @OZ41631 42103082
         AIF   ('&OVERIDE' EQ 'YES').OK1                       @OZ41631 42153082
   MNOTE 4,'*** OVERIDE=&OVERIDE IS INVALID,  YES ASSUMED ***' @OZ41631 42203082
.OK1     ANOP                                                  @OZ41631 42253082
         AIF   (&IEDQZA(1) AND '&SNAVALS' NE '').BADVALS       @OZ41631 42293082
         AIF   (&IEDQZA(4) AND '&SNAVALS' EQ '').BADVALS       @OZ41631 42333082
&VALOP   SETB  1                                                        42373082
         IEDQVCON 31,IEDQAE                                    @OZ41631 42413082
&OPS     SETA  &IEDQZE(31)                                     @OZ41631 42453082
&OPSN    SETC  '&SNAVALS'                                      @OZ41631 42493082
         AGO   .SNACON                                         @OZ41631 42533082
.BADVALS ANOP                                                  @OZ41631 42573082
         MNOTE 12,'*** IHB300 SNAVALS OPERAND INVALID AS SPECIFIED'     42613082
&IEDNO   SETB  1                                               @OZ41631 42653082
.SNACON  ANOP                                                  @OZ41631 42693082
         AIF   (NOT &IEDQZA(4)).REGGEN                         @OZ41631 42733082
&NAME    IEDQJN &MASK,&CONNECT,&CLEAR,&UPDATE,,&COUNT,,&BLANK,R,PASS=(&X42773082
               IEDQZL(1),&OPT,&OP,&FLG,&X,&OPS,&OPSN,,&VALOP)           42813082
         AGO   .BYJN                                           @OZ41631 42853082
.REGGEN  ANOP                                                  @OZ41631 42893082
&NAME    IEDQJN &MASK,&CONNECT,&CLEAR,&UPDATE,,&COUNT,,&BLANK,R,PASS=(&X43003000
               IEDQZL(1),&OPT,&OP,&FLG,&X)                     @YM08558 44003000
.BYJN    ANOP                                                  @OZ41631 44053082
         AIF   (&IEDNO).MEXIT       IF NOGO SET                         45003000
         AIF   (NOT &X).GEN         IF SENSE OMITTED                    46003000
         AIF   ('&SENSE'(K'&SENSE,1) NE '''').GNA0  IF SENSE NOT HEX    47003000
         DC    &SENSE                                                   48003000
         DS    0H                                              @YM07693 49003000
         AGO   .GEN                                                     50003000
.GNA0    DC    AL4(0)                                          @YM07693 51003000
         AIF   (NOT &Y).GEN         IF SENSE NOT REG NOTATION           52003000
         MVC   *-4(4),0(&SENSE(1))                                      53003000
.GEN     AIF   (&IEDQZA(5)).MEXIT   IF IN/OUTMSG SUBGROUPS              54003000
         L     15,IEDUI                                                 55003000
         BALR  14,15                                                    56003000
         AIF   ('&IEDQSV(6)' EQ '').MEXIT  IF CONCHARS NOT USED         57003000
&IEDQSV(6)  EQU *                                                       58003000
.MEXIT   SPACE                                                          59003000
         MEND                                                           60003000
