         MACRO                                                          00010010
&NAME    IEDSENSE  &AREA=                                               00020010
         GBLB  &IEDQZA(64)                                              00030010
         GBLA  &IEDQZE(64)                                              00040010
         LCLB  &NOGO,&SYMBOLC                                           00050010
         LCLA  &LENGTH                                                  00060010
         LCLC  &AREANME,&AREAREG                                        00070010
         SPACE 4                                                        00080010
.* A000000-999999                                             @X50X9MM  00090010
.* A370000                                                    @ZM41043  00100010
.* C750000                                                    @ZM41044  00110010
.* D280000-320000                                             @Y17XAMG  00120010
.* LENGTH IS THE TOTAL LENGTH OF THE PARAMETER LIST                     00130010
.* AREANME  IS THE SYMBOLIC NAME TO INDICATE THE USER AREA              00140010
.* NOGO IS A SWITCH INDICATE THAT IEDSENSE AS SPECIFIED IS INCORRECT    00150010
.* AREAREG IS THE REGISTER WHICH CONTAINS THE ADDRESS OF THE AREA       00160010
.* SYMBOLC  IS A BIT TO INDICATE THAT THE USER AREA ADDRESS IS          00170010
.*               SPECIFIED BY A SYMBOLIC NAME.                          00180010
.* IEDSENSE MACRO MUST FOLLOW STARTMH MACRO WITH TSOMH=NO SPECIFIED     00190010
.* THIS MACRO CAN ONLY BE CODED IN THE FOLLOWING SUBGROUPS: INHDR,      00200010
.*              INBLOCK,INBUF,OUTHDR,AND OUTBUF MACROS.                 00210010
         SPACE 4                                                        00220010
&LENGTH  SETA  2                                                        00230010
         AIF   (&IEDQZA(46)).STARTMH                                    00240010
         MNOTE 12,'*** IHB070 SEQUENCE ERROR - MUST FOLLOW STARTMH MACR*00250010
                O'                                                      00260010
&NOGO    SETB  1                                                        00270010
.STARTMH ANOP                                                           00280010
         AIF   (NOT &IEDQZA(5)).SUBGRP                                  00290010
         MNOTE 12,'*** IHB070 SEQUENCE ERROR - MUST FOLLOW INHDR,INBUF,*00300010
                INBLOCK,OUTDHR OR OUTBUF MACRO'                         00310010
&NOGO    SETB  1                                                        00320010
         AGO   .CKOPRND                                        @ZM41043 00330010
.SUBGRP  ANOP                                                           00340010
         AIF   (&IEDQZA(6) OR &IEDQZA(1)).CKOPRND                       00350010
         MNOTE 12,'*** IHB070 SEQUENCE ERROR - MUST FOLLOW INHDR,INBUF,*00360010
                INBLOCK,OUTHDR OR OUTBUF MACRO'                         00370010
&NOGO    SETB  1                                                        00380010
.CKOPRND ANOP                                                           00390010
         AIF   ('&AREA' NE '').CONTCKS                                  00400010
         MNOTE 12,'*** IHB004 REQUIRED OPERAND NOT SPECIFIED'           00410010
&NOGO    SETB  1                                                        00420010
         AGO   .VALDFRM                                                 00430010
.CONTCKS ANOP                                                           00440010
         AIF   ('&AREA'(1,1) EQ '(').REGISTR                            00450010
         AIF   ('&AREA'(1,1) LE 'Z').VALDNME                            00460010
         MNOTE 12,'*** IHB300 AREA OPERAND INVALID AS SPECIFIED'        00470010
&NOGO    SETB  1                                                        00480010
.VALDNME ANOP                                                           00490010
&AREANME SETC '&AREA'                                                   00500010
&SYMBOLC SETB  1                                                        00510010
&LENGTH  SETA  &LENGTH+4                                                00520010
         AGO   .VALDFRM                                                 00530010
.REGISTR ANOP                                                           00540010
&AREAREG SETC  '&AREA'(2,K'&AREA-2)                                     00550010
         AIF   ('&AREA'(2,1) LE 'Z').VALDREG                            00560010
         AIF   ('&AREAREG' GE '2' AND '&AREAREG' LE '12').VALDREG       00570010
.BADFRMT ANOP                                                           00580010
         MNOTE 12,'*** IHB300 AREA OPERAND INVALID AS SPECIFIED'        00590010
&NOGO    SETB  1                                                        00600010
         AGO   .VALDFRM                                                 00610010
.VALDREG ANOP                                                           00620010
&LENGTH  SETA  &LENGTH+2                                                00630010
.VALDFRM ANOP                                                           00640010
         AIF   (&NOGO).MEND                                             00650010
&NAME    DS    0H                                                       00660010
         IEDQVCON 19,IEDSNS .           MODULE TO DO THE FUNCT @YM08466 00670010
         CNOP  2,4                                                      00680010
         BAL   1,*+&LENGTH+4 .                                          00690010
         DC    AL1(&IEDQZE(19)) .       OFFSET IN AVTMSGS      @YM08466 00700010
         DC    AL1(&LENGTH) .           LENGTH OF THE PARAMETER LIST    00710010
         AIF   (&SYMBOLC).GENACON                                       00720010
         DC    AL1(&AREAREG) .          REG WHICH CONTAINS ADDRESS      00730010
*                                       OF AREA IF SPECIFIED            00740010
         DC     X'00'                   CLEAR UNUSED BYTE               00750010
         AGO   .GETOUT                                                  00760010
.GENACON ANOP                                                           00770010
         DC    A(&AREANME) .            ADDRESS OF AREA IF SPECIFIED    00780010
.GETOUT  ANOP                                                           00790010
         L     15,IEDUI                                                 00800010
         BALR  14,15                                                    00810010
.MEND    ANOP                                                           00820010
         MEND                                                           00830010
