         MACRO                                                          01000010
&NAME    IEDUTAB &LULEN=8,&RQIDLEN=0,&PWRDLEN=0,&UDATLEN=0,&GEN=YES     02000010
         GBLA  &IEDRQLN,&IEDPWLN,&IEDUDLN,&IEDLULN                      03000010
         GBLB  &IEDTBIN                                                 04000010
         LCLC  &LABEL                   NAME PLACE ON CSECT CARD        05000010
.*A000000-999999                                               @Y17XAFF 06000010
&LABEL   SETC  'IEDUSSTB'               GIVE DEFAULT LABEL              07000010
         AIF   ('&NAME' EQ '').A0010     UNLESS USER WANTS              08000010
&LABEL   SETC  '&NAME'                   ANOTHER                        09000010
.A0010   ANOP                                                           10000010
         AIF   (T'&LULEN NE 'N').A0020  &LULEN MUST BE GT 0 AND LE 8    11000010
         AIF   (&LULEN LE 8 AND &LULEN GT 0).A0030                      12000010
.A0020   MNOTE 4,'*** IEDU02 INVALID LULEN OPERAND, DEFAULT ASSUMED.'   13000010
&IEDLULN   SETA  8                                                      14000010
         AGO   .A0040                                                   15000010
.A0030   ANOP                                                           16000010
&IEDLULN   SETA  &LULEN                                                 17000010
.A0040   ANOP                                                           18000010
         AIF   (T'&RQIDLEN NE 'N').A0050 &RQIDLEN MUST BE GE 0 AND LE   19000010
         AIF   (&RQIDLEN LE 255 AND &RQIDLEN GE 0).A0060            255 20000010
.A0050   MNOTE 4,'*** IEDU03 INVALID RQIDLEN OPERAND, DEFAULT ASSUMED.' 21000010
&IEDRQLN   SETA  0                                                      22000010
         AGO   .A0070                                                   23000010
.A0060   ANOP                                                           24000010
&IEDRQLN   SETA  &RQIDLEN                                               25000010
.A0070   ANOP                                                           26000010
         AIF   (T'&PWRDLEN NE 'N').A0080 &PWRDLEN MUST BE GE 3 AND0LE   27000010
         AIF   (&PWRDLEN LE 255 AND &PWRDLEN GE 0).A0090           255  28000010
.A0080   MNOTE 4,'*** IEDU04 INVALID PWRDLEN OPERAND, DEFAULT ASSUMED.' 29000010
&IEDPWLN   SETA  0                                                      30000010
         AGO   .A0100                                                   31000010
.A0090   ANOP                                                           32000010
&IEDPWLN   SETA  &PWRDLEN                                               33000010
.A0100   ANOP                                                           34000010
         AIF   (T'&UDATLEN NE 'N').A0110 &UDATLEN MUST BE GE 0 AND LE   35000010
         AIF   (&UDATLEN LE 255 AND &UDATLEN GE 0).A0120            255 36000010
.A0110   MNOTE 4,'*** IEDU05 INVALID UDATLEN OPERAND, DEFAULT ASSUMED.' 37000010
&IEDUDLN   SETA  0                                                      38000010
         AGO   .A0130                                                   39000010
.A0120   ANOP                                                           40000010
&IEDUDLN   SETA  &UDATLEN                                               41000010
.A0130   ANOP                                                           42000010
&LABEL   TITLE 'USS-FSS CONVERSION TABLE'                               43000010
&LABEL   CSECT                                                          44000010
&IEDTBIN   SETB  1                                                      45000010
         DC    AL1(USSTYPE) .           TABLE TYPE IS USS-FSS           46000010
         SPACE 1                                                        47000010
         AIF   ('&GEN' EQ 'YES').A0140                                  48000010
         AIF   ('&GEN' EQ 'NO').A0150                                   49000010
         MNOTE 4,'*** IEDU06 INVALID GEN OPERAND, NO ASSUMED.'          50000010
         AGO   .A0150                                                   51000010
.A0140   ANOP                                                           52000010
*        BEGINNING OF DEFAULT USS-FSS TABLE                             53000010
*'INITS' EQUAL INIT-SELF CMD                                            54000010
         IEDUVERB INITS,CMD=INITS,RQIDLEN=0,PWRDLEN=0,LULEN=8,UDATLEN=0 54600010
         IEDUPARM INLU                                                  57000010
         IEDUVAL                                                        59000010
         IEDUPARM INMODE                                                61000010
         IEDUVAL                                                        63000010
*'TERMS' EQUAL TERMINATE-SELF CMD                                       64000010
         IEDUVERB TERMS,CMD=TERMS,LULEN=8                               66000010
         IEDUPARM TMLU                                                  68000010
         IEDUVAL                                                        70000010
*'LOGON ' EQUAL INIT-SELF CMD                                  @YM07701 70020010
         IEDUVERB LOGON,CMD=INITS,RQIDLEN=0,PWRDLEN=0,LULEN=8,UDATLEN=0 70040010
         IEDUPARM INLU                  1ST POSITIONAL PARM IS LU NAME  70060010
         IEDUVAL                                                        70080010
         IEDUPARM INMODE                2ND POSITIONAL PARM IS MODE NME 70100010
         IEDUVAL                                                        70120010
.A0150   MEND                                                           70140010
