*%GOTO IFABGN1;  /*                                                     00060002
         MACRO                                                          00070002
&NAME    IFASMFR &RECTYPE                                            */ 00072002
*%IFABGN1: ;                                                            00080002
* /*                                                                 */ 00090002
* /* MACMEAN IFASMFR MEANS SYSTEM MANAGEMENT FACILITY RECORD MAPPING */ 00092002
* /* MACCOMP Y-2 SC102/BL27P                                         */ 00094002
* /* MACSTAT Y-2 73298/42020                                         */ 00096000
* /* METHOD OF ACCESS                                                */ 00098002
* /*  PL/S - USER DEFINES MACRO VARIABLE IFARXX WHERE XX=RECORD NUM  */ 00098402
* /*         DECLARE SMFXXPTR PTR(31) OR RESPECIFY FOR BASE          */ 00098802
* /*         INCLUDE MACRO FROM LIBRARY                              */ 00099202
* /*          EXAMPLE %IFAR08 = 'YES',           NOTE. THE COMMA REP-*/ 00099602
* /*                  DCL SMF08PTR PTR(31),      RESENTS A SEMI-COLON*/ 00106402
* /*                  %INCLUDE SYSLIB(IFASMFR),  BUT ISN'T TO AVIOD  */ 00109802
* /*                                             A DIAGNOSTIC.       */ 00113202
* /*                                                                 */ 00113300
* /*                                                                 */ 00113400
* /*         THIS MACRO PROCESSES RECORDS IN THE RANGE 00-06. IT     */ 00113500
* /*         ACTS AS A ROUTER TO OTHER MACROS TO PROCESS OTHER       */ 00113600
* /*         RECORDS AS FOLLOWS:                                     */ 00113700
* /*                                                                 */ 00113800
* /*             MACRO        RECORDS                                */ 00113900
* /*            ********      *******                                */ 00114000
* /*            IFASMFR1      07-19                                  */ 00114100
* /*            IFASMFR2      20-27                                  */ 00114200
* /*            IFASMFR3      28-36                                  */ 00114300
* /*            IFASMFR4      37-46                                  */ 00114400
* /*            IFASMFR5      47-54                                  */ 00114500
* /*            IFASMFR6      55-69                                  */ 00114600
* /*            IFASMFR7      70-73                                  */ 00114700
* /*            IFASMFR8      74-79                                  */ 00114800
* /*            IFASMFR9      80-93                                  */ 00114900
* /*            IFASMFRA      94-103                                 */ 00115000
* /*            IFASMFRB      104-113                                */ 00115100
* /*            IFAMSFRC      114-123                                */ 00115200
* /*            IFASMFRD      124-127                                */ 00115300
*%GOTO IFABGN2;   /*                                                    00116602
.*                                                                      00133200
.*                                                                      00149800
.* CHANGE LEVEL= Z40MPTH, ZA05171, Z40FPTH, ZA10800, ZA27193            00166600
.*                                                                      00172800
.*                                                                      00179000
.* CHANGE ACTIVITY:                                                     00185200
.*                                                                      00191400
.*    $T8=UZ90390 ,EBB1102,850312,PDFS: TYPE 6 RESTRUCTURE        @T8A  00197600
.*                                                                      00203800
.*                                                                      00210000
*  THIS IS AN SMF MACRO WHICH CONTROLS THE BUILDING OF SMF RECORDS. THE 00216600
*  REQUIRED FORMAT IS                                                   00266600
*                                                                       00750002
*        IFASMFR  &RECTYPE                                              00800002
*                                                                       00825000
*  NOTE: VALUES FOR &RECTYPE MUST BE ENCLOSED IN PARENS(UNLESS ONLY 1). 00850000
*                                                                       00950002
         LCLA  &NUM,&B                                                  01500002
.* &NUM IS SET TO THE NUMBER OF SUBSTRING ITEMS IN THE FIRST PARAMETER  01550002
.* AND &B IS USED TO POINT AT EACH SUBSTRING ITEM.                      01600002
         AIF   ('&RECTYPE' EQ '').E1                                    01900002
&NUM     SETA  N'&RECTYPE                                               02000002
         AGO   .CONTC                                                   02050002
.CONTB   ANOP                                                           02100002
&NUM     SETA  &NUM-1                                                   02150002
.CONTC   ANOP                                                           02200002
         AIF   (&NUM LE 0).OUT                                          02250002
&B       SETA  &B+1                                                     02300002
.RTYCHK  AIF   ('&RECTYPE(&B)' EQ '').E3                                02350002
         AIF   (&RECTYPE(&B) GT 127 OR &RECTYPE(&B) LT 0).E5   @Z40FPTH 02400000
         AGO   .CONTA                                                   02450002
.E1      ANOP                                                           02500002
         SPACE 3                                                        02550002
         MNOTE 8,'PARAMETERS OMITTED, PROCESSING TERMINATED'            02600002
         MEXIT                                                          02650002
.E3      ANOP                                                           02900002
         SPACE 3                                                        02950002
         MNOTE 4,'NULL RECORD TYPE PASSED'                              03000002
         AGO   .CONTB                                                   03050002
.E5      ANOP                                                           03300002
         SPACE 3                                                        03350002
         MNOTE 4,'&RECTYPE(&B) INVALID RECORD TYPE SPECIFIED'           03400002
         AGO   .CONTB                                                   03450002
.CONTA   AIF   (&RECTYPE(&B) GE 0 AND &RECTYPE(&B) LE 6).G0             03500000
         AIF   (&RECTYPE(&B) GE 7 AND &RECTYPE(&B) LE 19).G1            03550000
         AIF   (&RECTYPE(&B) GE 20 AND &RECTYPE(&B) LE 27).G2           03600000
         AIF   (&RECTYPE(&B) GE 28 AND &RECTYPE(&B) LE 36).G3           03650000
         AIF   (&RECTYPE(&B) GE 37 AND &RECTYPE(&B) LE 46).G4           03700000
         AIF   (&RECTYPE(&B) GE 47 AND &RECTYPE(&B) LE 54).G5           03750000
         AIF   (&RECTYPE(&B) GE 55 AND &RECTYPE(&B) LE 69).G6           03800000
         AIF   (&RECTYPE(&B) GE 70 AND &RECTYPE(&B) LE 73).G7           03850000
         AIF   (&RECTYPE(&B) GE 74 AND &RECTYPE(&B) LE 79).G8           03900000
         AIF   (&RECTYPE(&B) GE 80 AND &RECTYPE(&B) LE 93).G9           03950000
         AIF   (&RECTYPE(&B) GE 94 AND &RECTYPE(&B) LE 103).GA          04000000
         AIF   (&RECTYPE(&B) GE 104 AND &RECTYPE(&B) LE 113).GB         04050000
         AIF   (&RECTYPE(&B) GE 114 AND &RECTYPE(&B) LE 123).GC         04100000
         AIF   (&RECTYPE(&B) GE 124 AND &RECTYPE(&B) LE 127).GD         04150000
         AGO   .E5                                                      06050002
.G0      ANOP                                                           06100000
         AIF   (&RECTYPE(&B) EQ 0).IFAS000                              06250002
         AIF   (&RECTYPE(&B) EQ 2).IFAS002                              06350002
         AIF   (&RECTYPE(&B) EQ 3).IFAS003                              06400002
         AIF   (&RECTYPE(&B) EQ 4).IFAS004                              06450002
         AIF   (&RECTYPE(&B) EQ 5).IFAS005                              06500002
         AIF   (&RECTYPE(&B) EQ 6).IFAS006                              06700002
         AGO   .E5                                                      07000002
.G1      ANOP                                                           07037500
         IFASMFR1 &RECTYPE(&B)                                          07075000
         AGO   .CONTB                                                   07112500
.G2      ANOP                                                           07150000
         IFASMFR2 &RECTYPE(&B)                                          07187500
         AGO   .CONTB                                                   07225000
.G3      ANOP                                                           07262500
         IFASMFR3 &RECTYPE(&B)                                          07300000
         AGO   .CONTB                                                   07337500
.G4      ANOP                                                           07375000
         IFASMFR4 &RECTYPE(&B)                                          07412500
         AGO   .CONTB                                                   07450000
.G5      ANOP                                                           07487500
         IFASMFR5 &RECTYPE(&B)                                          07525000
         AGO   .CONTB                                                   07562500
.G6      ANOP                                                           07600000
         IFASMFR6 &RECTYPE(&B)                                          07637500
         AGO   .CONTB                                                   07675000
.G7      ANOP                                                           07712500
         IFASMFR7 &RECTYPE(&B)                                          07750000
         AGO   .CONTB                                                   07787500
.G8      ANOP                                                           07825000
         IFASMFR8 &RECTYPE(&B)                                          07862500
         AGO   .CONTB                                                   07900000
.G9      ANOP                                                           07937500
         IFASMFR9 &RECTYPE(&B)                                          07975000
         AGO   .CONTB                                                   08012500
.GA      ANOP                                                           08050000
         IFASMFRA &RECTYPE(&B)                                          08087500
         AGO   .CONTB                                                   08125000
.GB      ANOP                                                           08162500
         IFASMFRB &RECTYPE(&B)                                          08200000
         AGO   .CONTB                                                   08237500
.GC      ANOP                                                           08275000
         IFASMFRC &RECTYPE(&B)                                          08312500
         AGO   .CONTB                                                   08350000
.GD      ANOP                                                           08387500
         IFASMFRD &RECTYPE(&B)                                          08425000
         AGO   .CONTB                                                   08462500
.OUT     MEXIT                                                          08500002
.IFAS000 ANOP                                                           08550002
         EJECT                                                          08600002
*  THIS DSECT DEFINES THE FORMAT FOR RECORD TYPE 0 (IPL RECORD)         08650002
*  RECORD LENGTH IS 31 BYTES                                            08700002
*                                                                       08750002
         DS    0F        ALIGN TO FULL WORD BOUNDARY                    08800002
SMFRCD0  EQU   *         HEADER SEGMENT                                 08850002
SMF0LEN  DS    BL2'0'    RECORD LENGTH                                  08900002
SMF0SEG  DS    BL2'0'    SEGMENT DESCRIPTOR                             08950002
SMF0FLG  DC    BL1'0'    HEADER FLAG BYTE                               09000002
SMF0RTY  DC    BL1'0'    RECORD TYPE 0                                  09050002
SMF0TME  DC    BL4'0'    TOD, USING FORMAT FROM TIME MACRO W/BIN. INTVL 09100000
SMF0DTE  DC    PL4'0000'      DATE IN PACKED DECIMAL FORM: 00YYDDDF     09150002
SMF0SID  DC    CL4' '    SYSTEM IDENTIFICATION                   Y02901 09250000
SMF0JWT  DC    BL4'0'    JOB WAIT TIME DEFAULT VALUE IN MINUTES(BINARY) 09350000
SMF0BUF  DC    BL4'0'    SMF BUFFER SIZE IN BYTES(BINARY)               09400000
SMF0VST  DC    BL4'0'    VIRTUAL STORAGE SIZE IN K BLOCKS(BINARY)XM4432 09450000
SMF0OPT  DC    BL1'0'    OPTIONS BYTE:                                  09500002
*                        BIT0 - SYSTEM & JOB DATA TO BE COLLECTED       09550002
*                        BIT1 - STEP DATA TO BE COLLECTED               09600002
*                        BIT2 - EXITS REQUESTED                         09650002
*                        BIT3 - DATA SET ACCOUNTING                     09700002
*                        BIT4 - VOLUME ACCOUNTING                       09750002
*                        BIT5 - RESERVED(WAS ESV IN 14 AND 15)          09800002
*                        BIT6 - TEMPORARY-DATA-SET SCRATCH RECORDS      09850002
*                        BIT7 - =0 BACKGROUND JOB; =1 FOREGROUND JOB    09900002
SMF0RST  DC    BL4'0'    REAL STORAGE SIZE IN K BLOCKS(BINARY)   XM4432 09950000
         AGO   .CONTB                                                   10000002
.IFAS002 ANOP                                                           11600002
         EJECT                                                          11650002
* THIS RECORD IS WRITTEN BY THE SMF DUMP UTILITY PROGRAM AT THE         11700002
* BEGINNING OF A DUMP DATA SET. RECORD LENGTH IS 14 BYTES               11750002
*                                                                       11800002
         DS    0F        ALIGN TO FULL WORD BOUNDARY                    11850002
SMFRCD2  EQU   *         HEADER SEGMENT                                 11900002
SMF2LEN  DS    BL2'0'    RECORD LENGTH                                  11950002
SMF2SEG  DS    BL2'0'    SEGMENT DESCRIPTOR                             12000002
SMF2FLG  DC    BL1'0'    HEADER FLAG BYTE                               12050002
SMF2RTY  DC    BL1'0'    RECORD TYPE 2                                  12100002
SMF2TME  DC    BL4'0'    TOD, USING FORMAT FROM TIME MACRO W/BIN. INTVL 12150000
SMF2DTE  DC    PL4'0000'      DATE IN PACKED DECIMAL FORM: 00YYDDDF     12200002
SMF2SID  DC    CL4' '    SYSTEM IDENTIFICATION                   Y02901 12300000
         AGO   .CONTB                                                   12400002
.IFAS003 ANOP                                                           12450002
         EJECT                                                          12500002
* THIS RECORD IS WRITTEN BY THE SMF DUMP UTILITY PROGRAM AT THE END     12550002
* OF A DUMP DATA SET. RECORD LENGTH IS 14 BYTES.                        12600002
*                                                                       12650002
         DS    0F        ALIGN TO FULL WORD BOUNDARY                    12700002
SMFRCD3  EQU   *         HEADER SEGMENT                                 12750002
SMF3LEN  DS    BL2'0'    RECORD LENGTH                                  12800002
SMF3SEG  DS    BL2'0'    SEGMENT DESCRIPTOR                             12850002
SMF3FLG  DC    BL1'0'    HEADER FLAG BYTE                               12900002
SMF3RTY  DC    BL1'0'    RECORD TYPE 3                                  12950002
SMF3TME  DC    BL4'0'    TOD, USING FORMAT FROM TIME MACRO W/BIN. INTVL 13000000
SMF3DTE  DC    PL4'0000'      DATE IN PACKED DECIMAL FORM: 00YYDDDF     13050002
SMF3SID  DC    CL4' '    SYSTEM IDENTIFICATION                   Y02901 13100000
         AGO   .CONTB                                                   13200002
.IFAS004 ANOP                                                           13250002
         EJECT                                                          13300002
* THIS RECORD IS WRITTEN AT NORMAL OR ABNORMAL TERMINATION OF A STEP.   13350002
* RECORD LENGTH IS VARIABLE. MINIMUM OF 137.                            13400002
*                                                                       13450002
         DS    0F        ALIGN TO FULL WORD BOUNDARY                    13500002
SMFRCD4  EQU   *         HEADER SEGMENT                                 13550002
SMF4LEN  DS    BL2'0'    RECORD LENGTH                                  13600002
SMF4SEG  DS    BL2'0'    SEGMENT DESCRIPTOR                             13650002
SMF4FLG  DC    BL1'0'    HEADER FLAG BYTE                               13700002
SMF4RTY  DC    BL1'0'    RECORD TYPE 4                                  13750002
SMF4TME  DC    BL4'0'    TOD USING FORMAT FROM TIME MACRO W/BIN. INTVL. 13800000
SMF4DTE  DC    PL4'0000' DATE IN PACKED DECIMAL FORM: OOYYDDDF          13850002
SMF4SID  DC    CL4' '    SYSTEM IDENTIFICATION                   Y02901 13900000
SMF4JBN  DC    CL8' '    JOB NAME                                       14000000
SMF4RST  DC    BL4'0'    READER START TIME (IN 100THS SECONDS)          14050000
SMF4RSD  DC    PL4'0000' READER START DATE                              14100002
SMF4UIF  DC    CL8' '    USER IDENTIFICATION FIELD                      14150000
SMF4STN  DC    BL1'0'    STEP NUMBER                                    14200002
SMF4SIT  DC    BL4'0'    STEP INITIATION TIME (IN 100THS SECONDS)       14250000
SMF4STID DC    PL4'0000' STEP INITIATION DATE (PACKED DECIMAL FORMAT)   14300002
SMF4NCI  DC    BL4'0'    NUMBER OF CARD IMAGES IN DD DATA OR DD *       14350000
*                        DATA SETS                                      14400002
SMF4SCC  DC    BL2'0'    STEP COMPLETION CODE                  @ZA11851 14450000
SMF4PRTY DC    BL1'0'    PRIORITY AT WHICH STEP WAS DISPATCHED :        14500002
*                        ACTUAL PRIORITY=251-(15-USER PRIORITY)*16      14550002
SMF4PGMN DC    CL8' '    PROGRAM NAME                                   14600002
SMF4STMN DC    CL8' '    STEP NAME                                      14650002
SMF4RSH0 DC    BL2'0'    REGION SIZE REQ(PRIVATE AREA 1K UNIT)   Y02901 14700000
SMF4PRV  EQU   SMF4RSH0                                          Y02901 14710002
SMF4SYST DC    BL2'0'    SYSTEM AREA USED(TOP OF PROVATE AREA)   Y02901 14750000
SMF4H0ST DC    BL2'0'    STORAGE USED(VIRT OR REAL-SEE SMF4RIN)         14800000
SMF4STU  EQU   SMF4H0ST  (LOW OF PRIVATE AREA)                   Y02901 14810002
SMF4RV1  DC    BL6'0'    RESERVED                                       14850000
SMF4SPK  DC    1BL1'0'   STORAGE PROTECT KEY                     A40791 14900002
SMF4STI  DC    1BL1'0'   STEP TERMINATION INDICATOR                     14950002
*                        BIT0 - RESERVED                                15000002
*                        BIT1 - CANCELLED AT EXIT IEFUJV                15050002
*                        BIT2 - CANCELLED AT EXIT IEFUJI                15100002
*                        BIT3 - CANCELLED AT EXIT IEFUSI                15150002
*                        BIT4 - CANCELLED AT EXIT IEFACTRT              15200002
*                        BIT5 - STEP IS TO BE RESTARTED        @YL026WA 15250002
*                        BIT6 - 0=NORMAL COMPLETION                     15300002
*                               1=ABEND                                 15350002
*                        BIT7 - 1=STEP FLUSHED                          15400002
SMF4RV2  DC    BL2'0'    RESERVED                                A40791 15450000
SMF4AST  DC    BL4'0'    DEVICE ALLOC START TIME                 A40791 15500000
SMF4PPST DC    BL4'0'    PROBLEM PROGRAM START TIME              A40791 15550000
SMF4RV3  DC    BL1'0'    RESERVED                              @YL026WA 15600002
SMF4SRBT DC    BL3'0'    STEP CPU TIME UNDER SRB(.01 SEC)      @YL026WA 15610000
SMF4RIN  DC    BL2'0'    RECORD INDICATORS                              15650000
*                        BIT0-5 RESERVED                       @YM02618 15652002
*                         6 =1 POSSIBLE ERROR IN DEV ENTRY     @YM02618 15660002
*                         7 =0 STOR IS VIRTUAL, =1 STOR IS REAL@YM02618 15700002
*                         8-15 RESERVED                        @YM02618 15750002
SMF4RLCT DC    BL2'0'    OFFSET TO RELOCATE SECTION                     15800000
SMF4LENN DC    BL2'0'    LENGTH OF EXCP PORTION OF RECORD               15850000
*        FOR EACH DEVICE ASSIGNED TO EACH DATA SET THERE IS AN 8 BYTE   15900002
*        ENTRY HAVING THE FOLLOWING FORMAT:                             15950002
*                                                                       16000002
SMF4DEVC DC    BL1'0'    DEVICE CLASS                                   16050002
SMF4UTYP DC    BL1'0'    UNIT TYPE                                      16100002
SMF4CUAD DC    BL2'0'    CHANNEL AND UNIT ADDRESS                       16137500
SMF4VDV  EQU   X'80'      VIRTUAL INDICATOR                    @Y30AQPF 16175000
SMF4EXCP DC    BL4'0'    COUNT OF EXCP'S ISSUED FOR THE DEVICE AND      16212500
*                        DATA SET                                       16250002
         ORG   SMF4DEVC                                                 16300002
SMF4LNTH DC    BL1'0'    TOTAL LENGTH OF CPU AND ACCT. SECTION          16350002
SMF4SETM DC    BL3'0'    STEP CPU TIME UNDER TCB(.01SEC)       @YL026WA 16400000
SMF4NAF  DC    BL1'0'    NUMBER OF ACCOUNTING FIELDS                    16450002
SMF4ACTF DS    0C        EXEC STATEMENT ACCOUNTING FIELDS(VARIABLE)     16500002
*                                                                       16550002
*        EACH ENTRY FOR AN ACCOUNTING FIELD CONTAINS THE LENGTH OF THE  16600002
*        FIELD (1 BYTE,BINARY), FOLLOWED BY THE FIELD(EBCDIC).AN        16650002
*        OMITTED FIELD IS REPRESENTED BY A LENGTH INDICATOR OF 0.       16700002
*                                                                       16750002
*        RELOCATE SECTION                                               16800002
SMF4PGIN DS    BL4'0'    NUMBER OF PAGE-INS                             16850000
SMF4PGOT DS    BL4'0'    NUMBER OF PAGE-OUTS                            16900000
SMF4NSW  DS    BL4'0'    NUM OF SWAPS                            Y02901 16910002
SMF4RGNS EQU   SMF4NSW                                           Y02901 16920002
SMF4PSI  DS    BL4'0'    PAGES SWAPPED IN                        Y02901 16930002
SMF4SIN  EQU   SMF4PSI                                           Y02901 16940002
SMF4PSO  DS    BL4'0'    PAGES SWAPPED OUT                       Y02901 16942002
SMF4SOUT EQU   SMF4PSO                                           Y02901 16944002
SMF4VPI  DS    BL4'0'    VAM PAGE INS                            Y02132 16946002
SMF4VPO  DS    BL4'0'    VAM PAGE OUTS                           Y02132 16948002
*        PERFORMANCE SECTION                                            16948100
SMF4SST  DS    BL4'0'              STEP SERVICE TIME           @YM07459 16948200
SMF4ACT  DS    BL4'0'              STEP ACTIVE TIME            @YM07459 16948300
SMF4PGNO DS    BL2'0'              PERFORMANCE NUMBER          @YM07459 16948400
SMF4TRAN DS    BL4'0'      STEP TRANSACTION RESIDENCY TIME     @Z40FPPF 16948500
SMF4RECL DS    BL4'0'      NUMBER OF RECLAIMS                  @Z40FPPF 16948600
SMF4RCLM DS    BL4'0'      NUMBER OF VIO RECLAIMS              @Z40FPPF 16948700
SMF4CPGN DS    BL4'0'      NUMBER OF COMMON PAGE-INS           @Z40FPPF 16948800
SMF4CRCL DS    BL4'0'      NUMBER OF COMMON RECLAIMS           @Z40FPPF 16948900
SMF4PGST DS    BL4'0'      NUMBER OF PAGES STOLEN FROM         @Z40FPPF 16949000
*                          THIS MEMORY                         @Z40FPPF 16949100
SMF4PSEC DS    CL8         COUNT OF PAGE SECONDS               @Z40FPPF 16949200
         AGO   .CONTB                                                   16950002
.IFAS005 ANOP                                                           17000002
         EJECT                                                          17050002
* THIS RECORD IS WRITTEN AT  NORMAL OR ABNORMAL TERMINATION OF A JOB.   17100002
* RECORD LENGTH IS VARIABLE. MINIMUM OF 117.                            17150002
*                                                                       17200002
         DS    0F        ALIGN TO FULL WORD BOUNDARY                    17250002
SMFRCD5  EQU   *         HEADER SEGMENT                                 17300002
SMF5LEN  DS    BL2'0'    RECORD LENGTH                                  17350002
SMF5SEG  DS    BL2'0'    SEGMENT DESCRIPTOR                             17400002
SMF5FLG  DC    BL1'0'    HEADER FLAG BYTE                               17450002
SMF5RTY  DC    BL1'0'    RECORD TYPE 5                                  17500002
SMF5TME  DC    BL4'0'    TOD USING FORMAT FROM TIME MACRO W/BIN. INTVL. 17550000
SMF5DTE  DC    PL4'0000' DATE, PACKED DEC. FORM : OOYYDDDF(F IS A SIGN) 17600002
SMF5SID  DC    CL4' '    SYSTEM IDENTIFICATION                   Y02901 17650000
SMF5JBN  DC    CL8' '    JOB NAME                                       17750000
SMF5RST  DC    BL4'0'    READER START TIME FOR JOB (IN 100THS/SECONDS)  17800000
SMF5RSD  DC    PL4'0000' READER START DATE,PACKED DECIMAL FORMAT        17850002
SMF5UIF  DC    CL8' '    USER IDENTIFICATION FIELD                      17900000
SMF5NST  DC    BL1'0'    NUMBER OF STEPS IN THE JOB                     17950002
SMF5JIT  DC    BL4'0'    JOB INITIATION TIME (IN 100THS/SECONDS)        18000000
SMF5JID  DC    PL4'0000' JOB INITIATION DATE, PACKED DECIMAL FORMAT     18050002
SMF5NCI  DC    BL4'0'    NUMBER OF CARD-IMAGE RECORDS IN DD DATA OR DD* 18100000
*                        DATA SETS                                      18150002
SMF5JCC  DC    BL2'0'    JOB COMPLETION CODE                            18200000
SMF5JPTY DC    BL1'0'    JOB PRIORITY                                   18250002
SMF5RSTT DC    BL4'0'    READER STOP TIME FOR JOB (IN 100THS/SECONDS)   18300000
SMF5RSTD DC    PL4'0000' READER STOP DATE FOR JOB (IN PACKED DEC.FORM)  18350002
SMF5JBTI DC    BL1'0'    JOB TERMINATION INDICATOR                      18400002
*                        BIT0-RESERVED                                  18450002
*                           1-CANCELLED AT EXIT IEFUJV                  18500002
*                           2-CANCELLED AT EXIT IEFUJI                  18550002
*                           3-CANCELLED AT EXIT IEFUSI                  18600002
*                           4-CANCELLED AT EXIT IEFACTRT                18650002
*                           5-RESERVED                                  18700002
*                           6-O=NORMAL COMPLETION                       18750002
*                             1=ABEND                                   18800002
*                           7-RESERVED                                  18850002
SMF5SMCI DC    BL1'0'    RESV-FORMERLY SYSOUT CLASSES INDICATOR  Y02120 18883300
SMF5TRAN DC    BL4'0'    TOTAL TRANSACTION RESIDENCY TIME      @ZM01380 18916600
SMF5CKRE DC    BL1'0'    RESV                                           18950002
SMF5RDCL DC    BL1'0'    READER DEVICE CLASS                            19350002
SMF5RUTY DC    BL1'0'    READER UNIT TYPE                               19400002
SMF5JICL DC    CL1' '    JOB INPUT CLASS                                19450002
SMF5SPK  DC    BL1'0'    STORAGE PROTECT KEY                     A40791 19500000
SMF5SRBT DC    BL3'0'    JOB CPU TIME UNDER SRB(.01 SEC)       @YL026WA 19550000
SMF5TJS  DS    BL4'0'    TOTAL JOB SERVICE(SERVICE UNITS)        Y02133 19560002
SMF5TTAT DS    BL4'0'    TOTAL TRANSACTION ACTIVE TIME FOR JOB   Y02133 19570002
SMF5RV2  DS    BL4'0'    RESERVED                              @YL026WA 19580000
SMF5PGNO DC    BL2'0'    PERFORMANCE GROUP #                   @YL026WA 19590000
SMF5RV3  DC    CL2' '    RESERVED                              @YL026WA 19592000
SMF5TLEN DC    BL1'0'    TOTAL LENGTH OF REST OF RECORD                 19600002
SMF5PRGN DC    CL20' '   PROGRAMMER'S NAME                              19650000
SMF5JCPU DC    BL3'0'    JOB CPU TIME UNDER TCB(.01 SEC)       @YL026WA 19700000
SMF5ACTF DC    BL1'0'    NUMBER OF ACCOUNTING FIELDS                    19750002
SMF5JSAF DS    0C        JOB STATEMENT ACCOUNTING FIELDS(VARIABLE)      19800002
*                                                                       19850002
*        EACH ENTRY FOR AN ACCOUNTING FIELD CONTAINS THE LENGTH OF THE  19900002
*        FIELD(1 BYTE,BINARY),FOLLOWED BY THE FIELD (EBCDIC).AN OMITTED 19950002
*        FIELD IS REPRESENTED BY A LENGTH INDICATOR OF 0.               20000002
         AGO   .CONTB                                                   20050002
.IFAS006 ANOP                                                           20100002
         EJECT                                                          20150002
* IN JES2, THIS RECORD IS WRITTEN FOR EACH JOB OUTPUT ELEMENT, @YL02120 20200002