*        %GOTO IFALRD;   /*                                             00010004
         MACRO                                                          00100004
&NAME    IFASMFRC &RECTYPE                                              00120004
.* *                                                                  * 00160004
.* * MACMEAN IFASMFRC MEANS SYSTEM MANAGEMENT FACILITY RECORD MAPPING * 00250004
.* * MACCOMP Y-2 SC102/BL27P                                          * 00290004
.* * MACSTAT Y-2 73298/42020                                          * 00330004
.* * METHOD OF ACCESS                                                 * 00370004
.* *  PL/S - INCLUDE MACRO FROM LIBRARY                               * 00450004
.* *          EXAMPLE - %INCLUDE SYSLIB(IFASMFRC)                     * 00490004
.* *                                                                  * 00530004
.* *         THIS MACRO EXPANDS RECORDS 114-123                       * 00570004
.* *                                                                  * 00650004
.* *                                                                    00690004
.* THIS IS AN SMF MACRO WHICH BUILDS SMF RECORDS 114-123. THE REQUIRED  00730004
.* FORMAT IS -                                                          00770004
.*                                                                      00850004
.*       IFASMFRC  &RECTYPE                                             00890004
.********************************************************************** 00930004
.E5      ANOP                                                           00970004
         SPACE 3                                                        01050004
         MNOTE 4,'&RECTYPE INVALID RECORD TYPE SPECIFIED'               01090004
.CONTB   ANOP                                                           01130004
         MEXIT                                                          01170004
         MEND      */                                                   01210004
 %IFALRD: ;                                                             01250004
