*        %GOTO IFAL20;   /*                                             00050004
         MACRO                                                          00100004
&NAME    IFASMFR2 &RECTYPE                                              00100804
.* *                                                                  * 00200004
.* * MACMEAN IFASMFR2 MEANS SYSTEM MANAGEMENT FACILITY RECORD MAPPING * 00250004
.* * MACCOMP Y-2 SC102/BL27P                                          * 00300004
.* * MACSTAT Y-2 73298/42020                                          * 00350004
.* * METHOD OF ACCESS                                                 * 00400004
.* *   PL/S - INCLUDE MACRO FROM LIBRARY                              * 00450004
.* *           EXAMPLE - %INCLUDE SYSLIB(IFASMFR2)                    * 00500004
.* *                                                                  * 00550004
.* *          THIS MACRO EXPANDS RECORDS 20 -27.                      * 00600004
.* *                                                                  * 00601004
.* *                                                                    00655004
.* THIS IS AN SMF MACRO WHICH BUILDS SMF RECORDS 20-27. THE REQUIRED    00705004
.* FORMAT IS -                                                          00755004
.*                                                                      00805004
.*          IFASMFR2 &RECTYPE                                           00855004
.*                                                                      00865003
.*                                                                      00875003
.* TYPE 26 RECORD - REMOVE ORG STMTS APPROX 147550,156550      @ZA12438 00885003
.* TYPE 26 RECORD - ADD ORG STMTS TO EVENTS,ACTUALS SECTIONS   @ZA17757 00895003
.********************************************************************** 00905004
         AIF   (&RECTYPE EQ 20).IFAS020                                 00955004
         AIF   (&RECTYPE EQ 21).IFAS021                                 01005004
         AIF   (&RECTYPE EQ 22).IFAS022                         Y02034  01055004
         AIF   (&RECTYPE EQ 25).IFAS025                       @Y02BPSE  01105004
         AIF   (&RECTYPE EQ 26).IFAS026                         Y02120  01155004
.E5      ANOP                                                           01205004
         SPACE 3                                                        01255004
         MNOTE 4,'&RECTYPE INVALID RECORD TYPE SPECIFIED'               01305004
.CONTB   ANOP                                                           01355004
         MEXIT                                                          01405004
.IFAS020 ANOP                                                           01455004
         EJECT                                                          01505004
* JOB COMMENCEMENT RECORD WRITTEN WHEN A JOB IS INITIATED.              01555004
* LENGTH IS VARIABLE. MINIMUM OF 61 BYTES.                              01605004
*                                                                       01655004
         DS    0F        ALIGN TO FULL WORD BOUNDARY                    01705004
SMFRCD20 EQU   *         RECORD 20                                      01755064
SMF20LEN DS    BL2'0'    RECORD LENGTH                                  01785064
SMF20SEG DS    BL2'0'    SEGMENT DESCRIPTOR                             01815064
SMF20HDR EQU   *         HEADER SEGMENT                                 01845064
SMF20FLG DS    BL1'0'    HEADER FLAG BYTE                               01905004
SMF20RTY DS    BL1'0'    RECORD TYPE 20                                 01955004
SMF20TME DS    BL4'0'    TOD, USING TIME MACRO W/BIN. INTVL.            02005004
SMF20DTE DS    PL4'0000' DATE, PACKED/DEC FORM; 00YYDDDF                02055004
SMF20SID DS    CL4' '    SYSTEM ID                               Y02901 02105004
SMF20JBN DS    CL8' '    JOB NAME                                       02155004
SMF20RST DS    BL4'0'    READER START TIME                              02205004
SMF20RSD DS    PL4'0000' READER START DATE, PK/DEC FORM: 00YYDDDF       02255004
SMF20UID DS    CL8' '    USERID                                         02305004
SMF20RIN DS    BL2'0'                                          @G32FPRS 02355064
         ORG   SMF20RIN                                        @G32FPRL 02365064
SMF20RLO DS    BL2'0'    OFFSET TO RELOCATE SECTION            @G32FPRL 02375064
SMF20PGM DS    CL20' '   PROGRAMMERS NAME                               02385064
SMF20NAF DS    BL1'0'    NO. ACCOUNTING FIELDS                          02395064
SMF20ACT EQU   *         ACCOUNTING FIELDS                              02405064
* BEGINNING OF RELOCATE SECTION                                         02415064
* SMF20RLO IS ITS OFFSET FROM BEGINNING OF HEADER - SMF20HDR   @G32FPRL 02425064
SMF20RLA EQU   *         RELOCATABLE AREA                      @G32FPRL 02435064
SMF20RLS DS    BL2       SIZE OF RELOCATABLE AREA              @G32FPRL 02445064
SMF20GRP DS    CL8' '    RACF GROUP ID                         @G32FPRS 02455064
SMF20RUD DS    CL8' '    RACF USER ID                          @G32FPRS 02465064
SMF20TID DS    CL8' '    RACF TERMINAL ID                      @G32FPRS 02475064
         AGO   .CONTB                                                   02555004
.IFAS021 ANOP                                                           02605004
         EJECT                                                          02655004
* THIS RECORD IS WRITTEN BY THE ERROR STATISTICS BY VOLUME OPTION       02705004
* WHENEVER A TAPE VOLUME IS DEMOUNTED.                                  02755004
* LENGTH IS 44 BYTES.                                                   02805004
         DS    0F        ALIGN TO FULL WORD BOUNDRY                     02855004
SMF21HDR EQU   *         HEADER SEGMENT FOR RECORD 21 (ESV)             02905004
SMF21LEN DS    BL2'0'    RECORD LENGTH                                  02955004
SMF21SEG DS    BL2'0'    SEGMENT DESCRIPTOR                             03005004
SMF21FLG DS    BL1'0'    HEADER FLAG BYTE                               03055004
SMF21RTY DS    BL1'0'    RECORD TYPE 21                                 03105004
SMF21TME DS    BL4'0'    TOD, USING TIME MACRO W/BIN. INTVL.            03155004
SMF21DTE DS    PL4'0000' DATE, PACKED/DEC FORM: 00YYDDDF                03205004
SMF21SID DS    CL4' '    SYSTEM ID                               Y02901 03255004
SMF21LGH DS    BL2'0'    LENGTH OF DATA PORTION                         03305004
SMF21VOL DS    CL6' '    VOL SERIAL                                     03355004
SMF21CA  DS    BL2'0'    CHANNEL ADDRESS                                03405004
SMF21UCB DS    BL4'0'    UCB TYPE CODE                                  03455004
SMF21TR  DS    BL1'0'    TEMPERARY READ ERRORS                          03505004
SMF21TW  DS    BL1'0'    TEMPERARY WRITE ERRORS                         03555004
SMF21SIO DS    BL2'0'    NO OF START I/O                                03605004
SMF21PR  DS    BL1'0'    PERMANEMT READ ERRORS                          03655004
SMF21PW  DS    BL1'0'    PERMANENT WRITE ERRORS                         03705004
SMF21NB  DS    BL1'0'    NOISE BLOCKS                                   03755004
SMF21ERG DS    BL2'0'    ERASE GAPS                                     03805004
SMF21CLN DS    BL2'0'    CLEANER ACTIONS                                03855004
SMF21DEN DS    BL1'0'    TAPE DENSITY                                   03905004
SMF21BLS DS    BL2'0'    BLOCK SIZE                                     03955004
SMF21RV0 DS    BL2'0'    RESERVED                                       04005004
         AGO   .CONTB                                                   04055004
.IFAS022 ANOP                                                    Y02034 04105004
         EJECT                                                   Y02034 04155004
*  THIS RECORD IS WRITTEN AFTER EVERY IPL AND EACH TIME A VARY   Y02034 04205004
*  COMMAND IS PROCESSED FOR A CPU, CHANNEL OR STORAGE BOX.       Y02034 04255004
*  LENGTH IS VARIABLE. MINIMUM OF 24.                            Y02034 04305004
*                                                                Y02034 04355004
         DS    0F                  ALIGN ON FULLWORD BDY         Y02034 04405004
SMFRCD22 EQU   *                   HEADER SEGMENT                Y02034 04455004
SMF22LEN DS    BL2                 RECORD LENGTH                 Y02034 04505004
SMF22SEG DS    BL2                 SEGMENT DESRIPTOR             Y02034 04555004
SMF22FLG DS    BL1                 HEADER FLAG BYTE              Y02034 04605004
SMF22RTY DS    BL1                 RECORD TYPE (22)              Y02034 04655004
SMF22TME DS    BL4                 TOD FROM TIME MACRO BINARY    Y02034 04705004
SMF22DTE DS    PL4                 DATE FROM TIME MACRO          Y02034 04755004
SMF22SID DS    CL4                 SYSTEM INDICATOR              Y02034 04805004
SMF22IND DS    BL2                 RECORD CREATOR INDICATOR      Y02034 04855004
*                                  X'0001' AT IPL                Y02034 04905004
*                                  X'0002' BY VARY ON            Y02034 04955004
*                                  X'0003' BY VARY OFF           Y02034 05005004
SMF22ECT DS    BL2                 # OF ELEMENTS FOLLOWING       Y02034 05055004
SMF22RSC EQU   *                   RESOURCE ELEMENTS             Y02034 05105004
*                                  CPU ELEMENT                   Y02034 05155004
SMF22RV0 DS    BL1                 RESV                          Y02034 05205004
SMF22PID DS    BL1                 PROCESSOR ID X'01'            Y02034 05255004
SMF22CPN DS    BL2                 CPU MODEL #                   Y02034 05305004
SMF22RV1 DS    BL1                 RESV                          Y02034 05355004
SMF22CPA DS    BL1                 CPU ADDRESS                   Y02034 05405004
         ORG   SMF22RSC                                          Y02034 05455004
*                                  CHANNEL ELEMENT               Y02034 05505004
SMF22CSD DS    BL1                 CHANNEL SET ID              @G64APJW 05555064
SMF22CID DS    BL1                 CHANNEL ID X'02'              Y02034 05605004
SMF22CHN DS    BL2                 CHANNEL TYPE AND MODEL #      Y02034 05655004
SMF22CHA DS    BL1                 CHANNEL ADDRESS               Y02034 05705004
SMF22CPD DS    BL1                 CPU ADDRESS                   Y02034 05755004
         ORG   SMF22RSC                                          Y02034 05805004
*                                  STORAGE ELEMENT(MEMORY)       Y02034 05855004
SMF22RV3 DS    BL1                 RESV                          Y02034 05905004
SMF22TID DS    BL1                 STORAGE ID X'03'              Y02034 05955004
SMF22PGL DS    BL2                 PAGE # OF LOWEST PAGE IN STOR Y02034 06005004
SMF22NPG DS    BL2                 # OF PAGES IN STORAGE         Y02034 06055004
         ORG   SMF22RSC                                        @Y30AQPF 06105004
*                                  IPL ELEMENT                 @Y30AQPF 06155004
SMF22RV4 DS    BL1                 RESV                        @Y30AQPF 06205004
SMF22IID DS    BL1                 IPL ID X'04'                @Y30AQPF 06255004
SMF22ION DS    BL40                UNITS ONLINE AT IPL         @Y30AQPF 06305004
         ORG   SMF22RSC                                        @Y30AQPF 06355004
*                                  VARY S ONLINE ELEMENT       @Y30AQPF 06405004
SMF22RV5 DS    BL1                 RESV                        @Y30AQPF 06455004
SMF22NID DS    BL1                 VARY S ONLINE ID X'05'      @Y30AQPF 06505004
SMF22RVA DS    BL1                 RESV                        @Y30AQPF 06555004
SMF22NSI DS    BL3                 SUBSYSTEM ID                @Y30AQPF 06605004
         ORG   SMF22RSC                                        @Y30AQPF 06655004
*                                  VARY S OFFLINE ELEMTNT      @Y30AQPF 06705004
SMF22RV6 DS    BL1                 RESV                        @Y30AQPF 06755004
SMF22FID DS    BL1                 VARY S OFFLINE ID X'06'     @Y30AQPF 06805004
SMF22RVB DS    BL1                 RESV                        @Y30AQPF 06855004
SMF22FSI DS    BL3                 SUBSYSTEM ID                @Y30AQPF 06905004
         AGO   .CONTB                                            Y02034 06955004
.IFAS025 ANOP                                                  @Y02BPSE 07005004
         EJECT                                                 @Y02BPSE 07055004
* JES3 WILL PRODUCE ONE SMF RECORD 25 FOR EACH JOB TO          @Y02BPSE 07105004
* REPRESENT ALL JCL STATIC ALLOCATIONS PLUS SEPARATE           @Y02BPSE 07155004
* RECORDS FOR EACH DYNAMIC ALLOCATION REQUEST AND              @Y02BPSE 07205004
* SEPARATE RECORDS FOR EACH GROUP OF CATALOG ALLOCATIONS.      @Y02BPSE 07255004
         DS    0F        ALIGN TO FULLWORD                     @Y02BPSE 07305004
SMFRCD25 EQU   *         HEADER SEGMENT (38 BYTES WITHOUT RDW  @Y02BPSE 07355004
SMF25LEN DS    BL2       RECORD LENGTH                         @Y02BPSE 07405004
SMF25SEG DS    BL2       SEGMENT DESCRIPTOR                    @Y02BPSE 07455004
SMF25FLG DS    BL1       HEADER FLAG BYTE                      @Y02BPSE 07505004
SMF25RTY DS    BL1       RECORD TYPE 25                        @Y02BPSE 07555004
SMF25TME DS    BL4       TOD OF RECORD (TIME MACRO BINARY)     @Y02BPSE 07605004
SMF25DTE DS    PL4       DATE OF RECORD                        @Y02BPSE 07655004
SMF25SID DS    CL4       SYSTEM INDICATOR                      @Y02BPSE 07705004
SMF25JBN DS    CL8       JOBNAME                               @Y02BPSE 07755004
SMF25RST DS    BL4       READER START TIME                     @Y02BPSE 07805004
SMF25RSD DS    PL4       READER START DATE                     @Y02BPSE 07855004
SMF25UIF DS    CL8       USER IDENTIFICATION FIELD             @Y02BPSE 07905004
*                                                                       07955004
* BEGINNING OF DESCRIPTIVE SECTION                                      08005004
*                                                                       08055004
SMF25IND DS    BL2       RECORD 25 FUNCTION FLAGS              @Y02BPSE 08105004
SMF25DYN EQU    X'8000'  BIT 0 - 1=DYNAMIC ALLOCATIONS         @Y02BPSE 08155004
*                                0=JCL,STATIC ALLOCATIONS      @Y02BPSE 08205004
SMF25CAT EQU    X'4000'  BIT 1 - 1=NON-EXECUTION ALLOCATIONS   @Y02BPSE 08255004
*                                0=EXECUTION ALLOCATIONS       @Y02BPSE 08305004
SMF25FCH EQU    X'2000'  BIT 2 - 1=AUTOMATIC ALLOCATIONS       @Y02BPSE 08355004
*                                0=MANUAL ALLOCATIONS          @Y02BPSE 08405004
SMF25RSV EQU    X'1FFF'  BIT 3 - 15 RESERVED                   @Y02BPSE 08455004
SMF25NTF DS    BL4       NUMBER OF TAPES FETCHED               @Y02BPSE 08505004
SMF25NDF DS    BL4       NUMBER OF DISK VOLUMES FETCHED        @Y02BPSE 08555004
SMF25FST DS    BL4       TOD FETCH START                       @Y02BPSE 08605004
SMF25FSD DS    PL4       DATE FETCH START                      @Y02BPSE 08655004
SMF25SST DS    BL4       TOD *START SETUP ISSUED               @Y02BPSE 08705004
*                        (SETUP START TIME ZERO FOR AUTO FETCH)@Y02BPSE 08755004
SMF25SSD DS    PL4       DATE *START SETUP ISSUED              @Y02BPSE 08805004
*                        (SETUP START DATE ZERO FOR AUTO FETCH)@Y02BPSE 08855004
SMF25NTM DS    BL4       NUMBER OF TAPES MOUNTED               @Y02BPSE 08905004
SMF25NDM DS    BL4       NUMBER OF DISK VOLUMES MOUNTED        @Y02BPSE 08955004
SMF25MST DS    BL4       TOD FIRST MOUNT MSG ISSUED            @Y02BPSE 09005004
SMF25MSD DS    PL4       DATE FIRST MOUNT MSG ISSUED           @Y02BPSE 09055004
SMF25VVT DS    BL4       TOD JOB VERIFIED                      @Y02BPSE 09105004
SMF25VVD DS    PL4       DATE JOB VERIFIED                     @Y02BPSE 09155004
SMF25NMV DS    BL4       NUMBER OF MSS VOLUMES                 @Z40LL00 09175003
SMF25END DS    0X        END OF RECORD                         @ZA05171 09205004
SMF25SIZ DS    0XL(SMF25END-SMFRCD25)  SIZE OF SMF 25 RECORD   @ZA05171 09255004
         AGO   .CONTB                                                   09305004
.IFAS026 ANOP                                                    Y02120 09355004
         EJECT                                                   Y02120 09405004
* THIS RECORD IS WRITTEN WHEN A JOB IS READY TO BE PURGED FOR  @YL02120 09455004
* BOTH FOREGROUND AND BACKGROUND JOBS IN THE SYSTEM.           @YL02120 09505004
         DS    0F       ALIGN TO FULL WORD BOUNDRY               Y02120 09555004
SMFRCD26 EQU   *        HEADER SEGMENT  (LGTH 46 WITHOUT RDW)  @YL02120 09605004
SMF26LEN DS    BL2      RECORD LENGTH                            Y02120 09655004
SMF26SEG DS    BL2      SEGMENT DESCRIPTOR                       Y02120 09705004
SMF26FLG DS    BL1      HEADER FLAG BYTE                         Y02120 09755004
SMF26RTY DS    BL1      RECORD TYPE 26                           Y02120 09805004
SMF26TME DS    BL4      TOD FROM TIME MACRO BINARY               Y02120 09855004
SMF26DTE DS    PL4      DATE FROM TIME MACRO                     Y02120 09905004
SMF26SID DS    CL4      SYSTEM INDICATOR                         Y02120 09955004
SMF26JBN DS    CL8      JOB NAME                                 Y02120 10005004
SMF26RST DS    BL4      RDR START TIME, TIME JOB CARD 1ST READ @YL02120 10055004
SMF26RSD DS    PL4      READER START DATE                        Y02120 10105004
SMF26UIF DS    CL8      USER IDENTIFICATION FIELD                Y02120 10155004
SMF26RSV DS    BL4      RESV                                     Y02120 10205004
SMF26SBS DS    BL2      SUBSYSTEM GENERATING ID(JES2=2, JES3=5)@YL02120 10255004
SMF26IND DS    BL2      INDICATORS                               Y02120 10305004
SMF26DES EQU   X'8000'  DESCRIPTIVE SECTION PRESENT            @ZA05171 10355004
SMF26EVT EQU   X'4000'  EVENT SECTION PRESENT                  @ZA05171 10405004
SMF26ATU EQU   X'2000'  ACTUALS SECTION PRESENT                @ZA05171 10455004
* BEGINNING OF DESCRIPTIVE SECTION                               Y02120 10505004
SMF26LN1 DS    BL2      LGTH OF THIS SECTION INCLUDING SELF    @YL02120 10555004
SMF26RV1 DS    BL2      RESV                                   @YL02120 10605004
SMF26IN2 DS    BL1      ADDITIONAL JOB INFORMATION(JES2 ONLY)  @YL02120 10655004
*                       BIT 0 - BACKGROUND BATCH               @YL02120 10705004
*                       1 - FOREGROUND TIME SHARING            @YL02120 10755004
*                       2 - SYSTEM TASK                        @YL02120 10805004
*                       3 - NO JOURNAL OPTION                  @YL02120 10855004
*                       4 - NO OUTPUT OPTION                   @YL02120 10905004
*                       5 - TYPRUN=SCAN                        @Z30AQPF 10955004
*                       6 - TYPRUN=COPY                        @Z30AQPF 11005004
*                       7 - RESERVED                           @YL02120 11055004
         ORG   SMF26IN2                                        @YL02120 11105004
SMF26IN3 DS    BL1      ADDITIONAL JOB INFORMATION(JES3 ONLY)  @ZA05171 11155004
SMF26DJC EQU    X'80'   BIT 0 - DEPENDENT JOB(//*NET JOB       @ZA05171 11205004
*                           PROCESSED)                         @YL02120 11255004
SMF26DLJ EQU    X'40'   1 - JOB SPECIFIED DEADLINE SCHEDULING  @ZA05171 11305004
SMF26DLM EQU    X'20'   2 - DEADLINE JOB MET DEADLINE          @ZA05171 11355004
SMF26PRJ EQU    X'10'   3 - //*PROCESS STMT PROCESSED          @ZA05171 11405004
SMF26NJX EQU    X'08'   4 - JOB LEFT SYSTEM VIA NJP(NETWORK    @ZA05171 11455004
*                           JOB PROCESSING)                    @YL02120 11505004
SMF26NJE EQU    X'04'   5 - JOB ENTERED SYSTEM VIA NJP         @ZA05171 11555004
SMF26DJO EQU    X'02'   6 - JOB LEFT SYSTEM VIA DJ(DUMP JOB)   @ZA05171 11605004
SMF26DJE EQU    X'01'   7 - JOB ENTERED SYSTEM VIA DJ          @ZA05171 11655004
SMF26INF DS    BL1      JOB INFORMATION                          Y02120 11705004
SMF26JCP EQU   X'80'    0 - JOB PRIORITY EXTERNALLY ASSIGNED   @ZA05171 11755004
*                          (JES2-VIA /*PRIORITY STMT)          @YL02120 11805004
*                          (JES3-VIA PRTY PARM ON JOB STMT)    @YL02120 11855004
SMF26STU EQU    X'40'   1 - SETUP JOB                          @ZA05171 11905004
*                          (JES2-/*SETUP STMT PROCESSED)       @YL02120 11955004
*                          (JES3-PROCESSED BY PREEXEC SETUP)   @YL02120 12005004
SMF26TRH EQU    X'20'   2 - JOB HELD VIA TYPERUN=HOLD          @ZA05171 12055004
*                       3 - JOB REQUESTED NO JES JOB LOG(JES2) @ZA05171 12105004
*                       4 - EXEC BATCHING JOB (JES2 ONLY)      @YL02120 12155004
SMF26EIR EQU    X'04'   5 - JOB ENTERED VIA INTERNAL RDR       @ZA05171 12205004
SMF26MRE EQU    X'02'   6 - JOB WAS RERUN BY JES               @ZA05171 12255004
SMF26OPC EQU    X'01'   7 - OPER CANCELLED JOB BY JES CMND     @ZA05171 12305004
SMF26JNM DS    CL4      JES ASSIGNED JOB #                     @YL02120 12355004
SMF26JID DS    CL8      JOB ID OF FORM XXX0YYYY WHERE YYYY IS  @YL02120 12405004
*                       JES ASSIGNED JOB # & XXX IS            @YL02120 12455004
*                       'JOB' - NORMAL JES JOB                 @YL02120 12505004
*                       'STC' - STARTED TASK CONTROL           @YL02120 12555004
*                       'TSU' - TSO USER                       @YL02120 12605004
SMF26NAM DS    CL20     PROGRAMMER'S NAME FROM JOB CARD          Y02120 12655004
SMF26MSG DS    CL1      MESSAGE CLASS FROM JOB CARD              Y02120 12705004
SMF26CLS DS    CL1      JOB CLASS FROM JOB CARD                  Y02120 12755004
SMF26XPI DS    BL1      INITIAL JOB PRIORITY                   @YL02120 12805004
SMF26XPS DS    BL1      SELECTION PRIORITY AT TIME JOB SELECTED@YL02120 12855004
SMF26OPI DS    BL1      INITIAL OUTPUT PRIORITY(JES2 ONLY)     @YL02120 12905004
SMF26OPS DS    BL1      OUTPUT PRIORITY AT SELECTION(JES2 ONLY)@YL02120 12955004
SMF26LOC DS    BL2      INPUT ROUTE CODE (JES2 ONLY)           @ZA05171 13005004
         ORG   SMF26OPI                                        @ZA05171 13055004
SMF26RV8 DS    XL4      RESERVED(JES3)                         @ZA05171 13105004
SMF26DEV DS    CL8      LOG INPUT DEV NAME OF WHERE JOB READ   @YL02120 13155004
*                       USERID IF TSO SUBMIT                   @YL02120 13205004
*                       SYSTEM NAME IF NJP                     @YL02120 13255004
SMF26ACT DS    CL4      PROGRAMMER'S ACCOUNTING # (JES2 ONLY)  @YL02120 13305004
SMF26ROM DS    CL4      PROGRAMMER'S ROOM # (JES2 ONLY)        @YL02120 13355004
         ORG   SMF26ACT                                        @ZA05171 13405004
SMF26RVA DS    XL8      RESERVED(JES3)                         @ZA05171 13455004
SMF26XTM DS    BL4      ESTIMATED EXECUTION TIME(SEC)          @YL026WA 13505004
SMF26ELN DS    BL4      ESTIMATED OUTPUT LINES                   Y02120 13555004
SMF26EPU DS    BL4      ESTIMATED OUTPUT PUNCHED CARDS           Y02120 13605004
*                                                              @YL02120 13655004
SMF26J2D EQU   *        JES2 ONLY DESCRIPTIVE SECTION          @YL02120 13705004
SMF26FRM DS    CL4      DEFAULT OUTPUT FORM #                    Y02120 13755004
SMF26CYP DS    BL2      PRINT COPY COUNT IF FOR ALL OF JOB       Y02120 13805004
SMF26LIN DS    BL2      LINES PER PAGE                           Y02120 13855004
SMF26PRR DS    BL2      PRINT ROUTE CODE                         Y02120 13905004
SMF26PUR DS    BL2      PUNCH ROUTE CODE                         Y02120 13955004
SMF26PDD DS    CL8      JES2 PROC DDNAME FOR JCL CONVERSION    @YM04806 14005004
         ORG   SMF26J2D                                        @YL02120 14055004
SMF26J3D EQU   *        JES3 ONLY DESCRIPTIVE SECTION          @YL02120 14105004
SMF26DTY DS    CL1      DEADLINE SCHEDULE TYPE                 @YL02120 14155004
SMF26RV6 DS    BL3      RESERVED                               @YL02120 14205004
SMF26IGP DS    CL8      LOG INPUT DEV GROUP NAME(JOB SOURCE)   @YL02120 14255004
SMF26PD3 DS    CL8      PROCEDURE DD NAME                      @YL02120 14305004
SMF26NJO DS    CL8      SYS NAME TO WHICH JOB SENT VIA NJP     @YL02120 14355004
SMF26NJI DS    CL8      SYS FROM WHICH JOB RECEIVED VIA NJP    @YL02120 14405004
SMF26NET DS    CL8      ID OF DEPENDENT JOB NET TO WHICH       @YL02120 14455004
*                       THIS JOB BELONGS(FROM //*NET STMT)     @YL02120 14505004
SMF26DTM DS    BL4      DEADLINE SCHEDULE TIME                 @YL02120 14555004
SMF26DDT DS    PL4      DEADLINE SCHEDULE DATE                 @YL02120 14605004
SMF26CLN DS    CL8      JOB CLASS NAME                         @YL02120 14655004
* BEGINNING OF EVENT SECTION                                     Y02120 14705004
         ORG   SMF26LN1 ORG TO BEGIN OF VARIABLE SECTION       @ZA17757 14755003
SMF26LN2 DS    BL2      LGTH OF THIS SECTION(INCLUDING SELF-60)  Y02120 14805004
SMF26RV2 DS    BL2      RESV                                     Y02120 14855004
SMF26RPT DS    BL4      READER STOP TIME                         Y02120 14905004
SMF26RPD DS    PL4      READER STOP DATE                         Y02120 14955004
SMF26CST DS    BL4      CONVERTER START TIME                     Y02120 15005004
SMF26CSD DS    PL4      CONVERTER START DATE                     Y02120 15055004
SMF26CPT DS    BL4      CONVERTER STOP TIME                      Y02120 15105004
SMF26CPD DS    PL4      CONVERTER STOP DATE                      Y02120 15155004
SMF26XST DS    BL4      EXECUTION START TIME                     Y02120 15205004
SMF26XSD DS    PL4      EXECUTION START DATE                     Y02120 15255004
SMF26XPT DS    BL4      EXECUTION STOP TIME                      Y02120 15305004
SMF26XPD DS    PL4      EXECUTION STOP DATE                      Y02120 15355004
SMF26OST DS    BL4      OUTPUT PROCESSOR START TIME              Y02120 15405004
SMF26OSD DS    PL4      OUTPUT PROCESSOR START DATE              Y02120 15455004
SMF26OPT DS    BL4      OUTPUT PROCESSOR STOP TIME               Y02120 15505004
SMF26OPD DS    PL4      OUTPUT PROCESSOR STOP DATE               Y02120 15555004
* BEGINNING OF ACTUALS SECTION                                   Y02120 15605004
         ORG   SMF26LN1 ORG TO BEGIN OF VARIABLE SECTION       @ZA17757 15655003
SMF26LN3 DS    BL2      LGTH OF THIS SECTION(INCLUDING SELF-32)  Y02120 15705004
SMF26RV4 DS    BL2      RESV                                     Y02120 15755004
SMF26ICD DS    BL4      # OF INPUT CARDS (JCL AND DATA)          Y02120 15805004
SMF26XLN DS    BL4      OUTPUT LINES GENERATED TO SPOOL          Y02120 15855004
SMF26XPU DS    BL4      OUTPUT PUNCH CARDS GENERATED TO SPOOL    Y02120 15905004
SMF26RID DS    CL4      INPUT PROCESSOR SYSTEM ID              @Z30AQPF 15955004
SMF26CID DS    CL4      JCL CONVERSION PROCESSOR SYSTEM ID     @Z30AQPF 16005004
SMF26XID DS    CL4      EXECUTION PROCESSOR SYSTEM ID          @Z30AQPF 16055004
SMF26OID DS    CL4      OUTPUT PROCESSOR SYSTEM ID             @Z30AQPF 16105004
SMF26JAF DS    CL42     JOB ACCT FIELDS (MAX. LEN 42)          @ZA05171 16155004
         AGO   .CONTB                                            Y02120 16205004
         MEND       */                                                  16255004
 %IFAL20: IF IFAR20='' %THEN %GOTO IFAL21;                              16305004
    DCL 1 SMFRCD20 BASED(SMF20PTR) BDY(WORD),                           16355004
 /* RECORD TYPE 20 - JOB INITIATION                                  */ 16405004
 /* WRITTEN BY JOB INITIATION                                        */ 16455004
         3 SMF20LEN FIXED(15),    /* RDW RECORD LENGTH               */ 16505004
         3 SMF20SEG FIXED(15),    /* RDW SEGMENT DESCRIPTOR          */ 16555004
         3 SMF20FLG BIT(8),       /* OPERATING ENVIRONMENT           */ 16605004
         3 SMF20RTY FIXED(8),     /* RECORD TYPE 20                  */ 16655004
         3 SMF20TME FIXED(31) BDY(BYTE), /* TOD RECORD WRITTEN       */ 16705004
         3 SMF20DTE CHAR(4),      /* DATE RECORD WRITTEN             */ 16755004
         3 SMF20SID CHAR(4),      /* SYSTEM ID FROM INSTALLATION     */ 16805004
         3 SMF20JBN CHAR(8),      /* JOB NAME                        */ 16855004
         3 SMF20RST FIXED(31) BDY(BYTE), /*READER START TIME(.01 SEC)*/ 16905004
         3 SMF20RSD CHAR(4),      /* READER START DATE               */ 16955004
         3 SMF20UIF CHAR(8),      /* USER ID FIELD                   */ 17005004
          5 SMF20UID CHAR(8),                                           17055004
         3 SMF20RIN FIXED(15) BDY(BYTE),             /*      @G32FPRL*/ 17105064
           5 SMF20RLO FIXED(15) BDY(BYTE), /* OFFSET FROM BEGINNING     17115064
                                              OF RECORD TO RELOCATABLE  17125064
                                              AREA           @G32FPRL*/ 17135064
         3 SMF20PGM CHAR(20),     /* PROGRAMMER'S NAME               */ 17145064
         3 SMF20NAF FIXED(8),     /* # OF ACCT FIELDS FOLLOWING      */ 17155064
         3 SMF20ACT CHAR(*);      /* ACCOUNTING FIELDS       @G32FPRL*/ 17165064
    DCL 1 SMF20AFD BASED BDY(BYTE), /* ACCT SECTION                  */ 17175064