         MACRO                                                          00050002
&NAME    IHAFETWK                                                       00100002
WKAREA   DSECT                                                          00150002
WKFETCH  EQU   *                  FETCH WORKAREA                        00200002
*              THE FOLLOWING SEQMENT DESCRIBES THE STRUCTURE OF THE     00210002
*              WORK AREA USED BY FETCH.                                 00220002
*                                                                       00244002
FTIOB    DS    8F                 IOB USED FOR EXCP REQUESTS            00248002
FTIOBSK  DS    2F                 IOB SEEK ADDRESS                      00248402
*********************                                                   00248802
XAREA    DS    0F                                                       00249202
XKEY     DC    CL4'FTWA'          FETCH IDENTIFICATION KEY              00249602
XFLAGS   DS    0XL4               FETCH CONTROL FLAGS                   00249702
XFLAG1   DS    X                  TRANSLATE/FIX CONTROL FLAGS           00249802
* ---------- XFLAGS BIT DEFINITIONS                                     00254802
NEWIOFLG EQU   X'80'              FRESH I/O REQUEST ISSUED              00259802
ACTXTFLG EQU   X'40'              READ-TEXT CCW IS ACTIVE IN CURRENT CP 00266602
SYNRDFLG EQU   X'20'              SYNC READ ISSUED (NO PCI)             00276602
USDEBFLG EQU   X'10'              USERS DEB COPIED INTO GOTTON CORE     00278602
TXTREAD  EQU   X'08'              SIO APPENDAGE TXT READ INDIC.  YM2867 00279202
VAMDEV   EQU   X'04'              ** UCB INDICATES A VIRTUAL     Y02081 00279502
*                           IF ON ** DEVICE IS BEING FETCHED     Y02081 00280402
*                                 ** FROM (VAM DATA SET)         Y02081 00281302
RPSDEV   EQU   X'02'              ** DEVICE BEING FETCHED FROM   Y02081 00282202
*                           IF ON ** SUPPORTS ROTATIONAL         Y02081 00283102
*                                 ** POSITION SENSING (RPS)      Y02081 00284002
RELERR   EQU   X'01'              ** AN INVALID ADCON ADDRESS    Y02081 00284902
*                           IF ON ** WAS ENCOUNTERED IN THE      Y02081 00285802
*                                 ** DIE RELOCATE ROUTINE        Y02081 00286702
* --------------                                                        00287602
XFLAG2   DS    X                  CONTROL FLAGS - BYTE 2         Y02081 00288802
* ---------- XFLAG2 BIT DEFINITIONS                              Y02081 00289002
BADREC   EQU   X'80'              ** AN INVALID RECORD           Y02081 00289202
*                           IF ON ** TYPE WAS ENCOUNTERED        Y02081 00289402
*                                 ** IN THE DIE ROUTINE          Y02081 00289602
TXTFIX   EQU   X'40'              ** THE DIE ROUTINE FOUND THE   Y02081 00289802
*                           IF ON ** NEXT TEXT RECORD TO BE      Y02081 00290002
*                                 ** OUTSIDE THE PGFIX'D AREA    Y02081 00290202
ONETXT   EQU   X'20'              ** THE MODULE BEING READ       Y02081 00290802
*                           IF ON ** CONTAINS ONE TEXT RECORD    Y02081 00290902
*                                 ** WITH NO RLD RECORDS         Y02081 00291002
PRGFREE  EQU   X'10'              ** PURGE SUBROUTINE            Y02081 00291102
*                           IF ON ** HAS ALREADY                 Y02081 00291202
*                                 ** FREED RESOURCES.            Y02081 00291302
ACRRELOC EQU   X'08'              ** WHEN WE BRANCH TO PCI APG   Y02081 00291402
*                           IF ON ** AFTER COMMAND RETRY         Y02081 00291502
*                                 ** RELOCATION IS REQD          Y02081 00291602
CPLOOP   EQU   X'04'              ** CHANNEL PROGRAM LOOP HAS    Y02081 00291702
*                           IF ON ** BEEN DETECTED BY POST       Y02081 00291802
*                                 ** STATUS NORMAL EXIT RTN      Y02081 00292802
CTLERR   EQU   X'02'              ** AN INVALID ADDRESS WAS      @M7587 00292902
*                           IF ON ** FOUND IN A CONTROL RECORD   @M7587 00293002
*                                 ** BY THE DIE ROUTINE          @M7587 00293102
IOSBFREE EQU   X'01'              ** IOSB/SRB HAS BEEN          @YM8279 00293202
*                           IF ON ** FREEMAINED IN TERMINATION  @YM8279 00294202
* ----------                                                     Y02081 00296302
         DS    2X                 -  RESERVED  -                        00297302
*********************                                                   00299302
FTSKBUF1 DS    2F                                                Y02081 00300302
FTSKBUF2 DS    2F                                                Y02081 00301302
FTSKBUT3 DS    2F                                                Y02081 00302302
FTSKBUF4 DS    2F                                                Y02081 00303302
FTCPSRCH DS    4D                 SERACH AND TIC CCWS            Y02081 00304302
FTRBUF1  DS    32D                RLD BUFFER 1                   Y02081 00305302
FTCP1    DS    6D                 CHAN PROG 1                    Y02081 00306302
FTRBUF2  DS    32D                RLD BUFFER 2                   Y02081 00307302
FTCP2    DS    6D                 CHAN PROG 2                    Y02081 00308302
FTRBUF3  DS    32D                RLD BUFFER 3                   Y02081 00309302
FTCP3    DS    6D                 CHAN PROG 3                    Y02081 00310302
FTECB    DS    1F                                                       00318202
FTFXECB  DS    1F                 ECB FOR PGFIX REQUESTS         Y02081 00319202
FTTBLPTR DS    1F                 POINTER TO CURRENT FTTBL ENTRY Y02081 00320202
FTTBL    DS    9F                 BUFFER TABLE                          00320602
FTTBL2   EQU   FTTBL+12           2ND ENTRY IN BUFFER TABLE      Y02081 00320702
FTTBL3   EQU   FTTBL+24           3RD ENTRY IN BUFFER TABLE      Y02081 00320802
FTREGSV  DS    16F                REGISTER SAVE AREA                    00321002
FTRPTR   DS    1F                 ADDR OF R POINTER                     00321902
FTFLAGS  DS    0FL8               FETCH CONTROL FLAGS            Y02081 00322002
FTFLG1   DS    XL1                FLAG BYTE 1                    Y02081 00322502
FTFLG2   DS    XL1                FLAG BYTE 2                    Y02081 00323002
FTFLG3   DS    XL1                FLAG BYTE 3                    Y02081 00323502
FTFLG4   DS    XL1                FLAG BYTE 4                    Y02081 00324002
FTRESTRT DS    1F                 ADDR OF PREVIOUS RBUF USED     Y02081 00324502
*                                 IN THE DIE ROUTINE TO LOCATE   Y02081 00325002
*                                 LAST TIC-TO ADDR TO SET UP     Y02081 00325502
*                                 THE TIC IN THE SRCHID CP FOR   Y02081 00326002
*                                 RESTART                        Y02081 00326702
FTLASTBF DS    1F                 PTR TO PRIOR BUFR TABLE ENTRY         00328702
*                                                                       00330702
*              EXTENSION TO FETCH WORK AREA                             00332702
*                                                                       00336002
XSOMAD   DS    F                  LOWER CORE LIMIT FOR LOAD MODULE      00338002
XEOMAD   DS    F                  UPPER CORE LIMIT FOR LOAD MODULE      00340602
XLOWFIX  DS    F                  LOWER BOUND FOR TEXT AREA FIX REQ     00340702
XHIFIX   DS    F                  UPPER BOUND FOR TEXT AREA FIX REQ     00342702
XNEXTLOC DS    F                  LOCATION OF NEXT TEXT BYTE READ       00344702
XTRANTAB DS    0XL8               CCW TRANSLATE DATE-                   00346702
XCCWAD   DS    F                  POINTER TO CCW REQ TRANSLATION        00352502
XTXTAD   DS    F                  VIRTUAL ADDRESS IN THE CCW            00362502
XIDALP1  DS    AL4(XALAREA1)      POINTER TO IDAL BUILD AREA            00364502
XIDALP2  DS    AL4(XALAREA2)      POINTER TO ALTERNATE IDAL AREA        00368402
XALAREA1 DS    10F                IDAL AREA                             00370402
XALAREA2 DS    10F                IDAL AREA                             00372402
XGMLIST  DS    4F                 GETMAIN LIST AREA                     00376302
XORGDCB  DS    1F                 ORIGINAL LOAD DCB ADDRESS             00378302
XIOSBAD  DS    1F                 ADDR OF IOSB/SRB TO BE FREED   Y02081 00379302
XDEBLEN  DS    1F                 SIZE OF MS OBTAINED FOR DEB(INC SP)   00380302
XRETSAV  DS    1F                 REGISTER 14 SAVE AREA          Y02081 00383302
XREGSV3  DS    1F                 REGISTER 3 SAVE AREA           YM1070 00386302
SREGSV6  DS    1F                 REGISTER 6 SAVE AREA           YM1070 00389302
XSECTAD  DS    1X                 BUFFER FOR READ/SET            Y02081 00392302
*                                 SECTOR COMMANDS WHEN           Y02081 00395302
*                                 FETCHING FROM AN RPS DEVICE    Y02081 00398302
         DS    3X                 -  RESERVED  -                 Y02081 00401302
XFTCBAD  DS    1F                 ADDRESS OF TCB FETCH IS        Y02081 00404302
*                                 RUNNING UNDER (SAVED FOR       Y02081 00408602
*                                 USE BY PURGE SUBROUTINE)       Y02081 00409502
*----PSEUDO DCB DEFINITION (USED WITH THE COPIED DEB).                  00410402
XDCBDEBO EQU   44                 OFFSET OF DEB ADDR IN DCB      Y02081 00411302
         ORG   *-XDCBDEBO         ORG BACK OVER UNUSED FIELDS           00412202
XDCBCOPY EQU   *                  STATR OF DCB                          00413102
         ORG   *+XDCBDEBO         RESTORE LOC COUNTER                   00414102
XDCBDEBA DS    1F                 PSEUDO 'DCBDEBAD' FIELD               00414502
*----END OF PSEUDO DCB DEFINITION.                                      00414702
XESTAEPT DS    1F                 ADDRESS SAVED IOSB/SDWA        Y02081 00414902
XESTLIST DS    1F                 ESTAE MACRO PARAMETER LIST     Y02081 00415302
XIOBSEK1 DS    XL5                IOBSEEK SAVE 1                 Y02081 00415702
XIOBSEK2 DS    XL5                IOBSEEK SAVE 2                 Y02081 00416102
         DS    2X                 -  RESERVED  -                 Y02081 00416502
*--PSEUDO SVRB FETWK AREA PTR USED TO SET UP CORRECTLY IN ESTAE @YM8279 00416602
*   WHEN WE HAVE AN OVERLAY SUPERVISOR REQUEST.  THE FOLLOWING  @YM8279 00417102
*   WORD POINTS TO THE FETCH WORK AREA AND IS SET UP AT ESTAE   @YM8279 00417602
*   MACRO TIME FOR AN OVERLAY SUPERVISOR REQUEST.THE ORG BEHIND @YM8279 00418102
*   IT MAKES IT LOOK LIKE IT IS IN THE SVRB BY ORGING TO THE    @YM8279 00418602
*   SAME OFFSET THE WORK AREA PTR IS STORED AT IN THE SVRB BY   @YM8279 00419102
*   CONTENTS SUPERVISOR.                                        @YM8279 00419602
XESTAWKA DS    1F                ESTAE PTR TO FETWK AREA        @YM8279 00420102
XESTAORG EQU   XESTAWKA-X'74'    OVLY SUPVR ESTAE PTR           @YM8279 00420602
         DS    84X                -  RESERVED FOR FUTURE USE --         00421102
         SPACE                                                          00423102
*---------------MISC. EQUATES                                           00424102
IDALNTRY EQU   4                  SIZE OF EACH IDAL ENTRY               00425102
FIXLOENT EQU   0                  OFFSET TO LOW ENTRY PORTION           00427102
FIXHIENT EQU   4                  OPPSET TO HIGH ENTRY PORTION          00429402
FIXENTSZ EQU   8                  SIZE OF SIX-LIST ENTRY                00431402
********************* PROGRAM MANAGER WORK AREA                         00433402
WKPGMMGR EQU   *                  PROGRAM MANAGER WORK AREA             00435402
WKCDADDR DS    A                  ADDRESS OF CDE                        00437402
WKIOADDR DS    A                  ADDRESS OF AREA GETMAINED.  FETCH     00439702
*                                 WILL DO I/O INTO THIS AREA            00450002
WKFLAG   DS    C                  TASKLIB SEARCH INDICATOR              00452002
FLAG     EQU   WKFLAG             USED FOR COMPATIBILITY                00454002
WKFLG1   DS    C                  FLAGS FIELDS                          00460002
WKAUTH   EQU   X'80'              FETCH PLACES THE LIBRARY       Y02758 00500002
*                                 AUTHORIZATION FORM THE DEB HERE       00550002
WKSYSREQ EQU   X'40'              USER IS SYSTEM REQUEST                00560002
WKFLGS2  DS    2C                 RESERVED                              00600002
WKREGIS  DS    4F                 USED TO SAVE REGISTERS ACROSS BLDL    00650002
WKTCBSE  DS    A                  ADDRESS OF TCB CONTAINING LAST DCB    00700002
WKDCBSE  DS    A                  ADDRESS OF LAST DCB SEARCH ARGUMENT   00750002
********************* BLDL ENTRY AND MASK                               00760002
WKBLDE   EQU   *                  BLDL LIST                             00800002
WKPREFX  DS    4C                 MASK FOR BLDL REQUEST                 00850002
WKNAME   DS    8C                 THIS IS THE BASE                      00900002
WKTTRN   DS    4C                 AREA OF A                             00950002
WKZBYTE  DS    1C                 FORMAT 2 PDS                          01000002
WKCBYTE  DS    1C                 DIRECTORY ENTRY WITH                  01050002
WKTTESD  DS    8C                 2 BYTE MODIFIED                       01100002
WKATTR   DS    2C                 BY BLDL                               01150002
WKLNTH   DS    5C                       *                               01200002
WKENTPT  DS    3C                       *                               01250002
WKTXORG  DS    3C                       *                               01300002
WKAPFSSI DS    CL6                APF AND SSI INFO IF PRESENT           01350002
         ORG   WKAPFSSI           OVERLAY FOR ALISA, NO SCATTER         01400002
WKENTBK  DS    3C                 USED IF THE MODULE IS AN ALIAS        01450002
WKNAMBK  DS    8C                 AND HAS RENT OR REUS ATTRIBUTES       01500002
*                                 AND NO SCATTER                        01550002
         DS    CL6                APF AND SSI INFO IF PRESENT           01600002
         ORG   WKAPFSSI           * OVERLAY FOR WKENTBK                 01650002
WKSCATR  DS    8C                 USED FOR MODULES                      01700002
WKSCAPSI DS    CL6                APF AND SSI IF SCATTER ONLY           01750002
         ORG   WKSCAPSI           OVERLAY FOR SCATTER ALIAS             01800002
WKENTSC  DS    3C                 WHICH ARE SCATTER LOADED              01810002
WKNAMSC  DS    8C                 HAVE RENT OR REUS ATTRIBUTES          01850002
         DS    CL6                APF AND SSI INFO IF PRESENT           01950002
WKMAINEP DS    4C                 USED TO MAKE DSECT CONSISTANT         02000002
WKMAINAM DS    8C                 REGARDLESS OF ATTRIBUTES              02050002
WKEND    EQU   *                  END OF BLDL FETCH WORK AREA           02100002
WKSIZE   EQU   WKEND-WKFETCH      SIZE OF WORK AREA                     02150002
         MEND                                                           02200002
