         MACRO                                                          00050000
&NAME    IHBINNRB &EP,&EPLOC,&DE,&DCB,&HIARCHY,&ERRET=,&SF=I            00100000
         GBLC  &IHBNO                                                   00150000
         LCLB  &B(4)                                                    00200000
         LCLA  &CTR,&A,&LIST                                            00250000
         LCLC  &CHARS                                                   00300000
&B(1)    SETB  ('&EP' NE '')                                            00350000
&B(2)    SETB  ('&EPLOC' NE '')                                         00400000
&B(3)    SETB  ('&DE' NE '')                                            00450000
&B(4)    SETB  ('&ERRET' NE '')                                         00500000
&LIST    SETA  (8+4*&B(4))                                              00550000
         AIF   (&B(1)+&B(2)+&B(3) GT 1).E1                              00600000
         AIF   ('&EP' EQ '').AGONE                                      00650000
         AIF   ('&EP'(1,1) EQ '(').E1A                                  00700000
.AGONE   ANOP                                                           00750000
         AIF   ('&SF' EQ 'I').IROUT                                     00800000
         AIF   ('&SF' EQ 'L').LROUT                                     00850000
         AIF   (N'&SF NE 2).E2                                          00900000
         AIF   ('&SF(1)' NE 'E').E2                                     00950000
         AIF   ('&SF'(4,1) EQ '(').ISAREG                               01000000
         LA    15,&SF(2)      LOAD SUP. PARM LIST                       01050000
         AGO   .CONTA                                                   01100000
.E1      IHBERMAC 88,&IHBNO   TOO MANY PARAMETERS PRESENT               01150000
         MEXIT                                                          01200000
.E1A     IHBERMAC 42,&EP      R-FORM INVALID FOR EP NAME                01250000
         MEXIT                                                          01300000
.E2      IHBERMAC 41,,&SF,,,0   SF PARAMETER BAD                        01350000
         MEXIT                                                          01400000
.E3      IHBERMAC 72,&IHBNO   REG. NOT. W/SF=L                          01450000
         MEXIT                                                          01500000
.E4      IHBERMAC 31,&IHBNO   EP,EPLOC,DE ALL MISSING                   01550000
         MEXIT                                                          01600000
.ISAREG  AIF   ('&SF(2)' EQ '(15)').CONTA                               01650000
&A       SETA  K'&SF-6                                                  01700000
&CHARS   SETC  '&SF'(5,&A)                                              01750000
         LR    15,&CHARS      LOAD SUP. PARM LIST ADDR                  01800000
.CONTA   AIF   (NOT &B(1)).CONTB                                        01850000
         LA    0,*+8          LOAD EP ADDR IN REG 0                     01900000
         B     *+12           BRANCH AROUND EP                          01950000
         DC    CL8'&EP'       EP SYMBOL                                 02000000
         ST    0,0(0,15)      STORE IN SUP. PARMLIST                    02050000
         AGO   .DCBCHK                                                  02100000
.CONTB   AIF   (&B(2)+&B(3) EQ 0).DCBCHK                                02150000
         AIF   ('&EPLOC&DE'(1,1) EQ '(').ISAREGA                        02200000
         LA    0,&EPLOC&DE    PICK UP SUP. PARMLIST                     02250000
         ST    0,0(0,15)      STORE IN SUP. PARMLIST                    02300000
         AGO   .DECHK                                                   02350000
.ISAREGA LA    0,0(0,&EPLOC(1)&DE(1)) PICKUP EPLOC OR DE PARM @ZA65467  02383300
         ST    0,0(0,15)     STORE IN SUP. PARMLIST           @ZA65467  02416600
.DECHK   AIF   (NOT &B(3)).DCBCHK                                       02450000
         MVI   0(15),X'80'    SET DE SWITCH BIT ON                      02500000
.DCBCHK  AIF   ('&DCB' EQ '').RETCK                                     02550000
         AIF   ('&DCB'(1,1) EQ '(').ISAREGB                             02600000
         LA    0,&DCB         PICK UP DCB PARM                          02650000
         AGO   .STORDCB                                                 02700000
.ISAREGB LA    0,0(0,&DCB(1))  PICK UP DCB PARM                         02750000
.STORDCB ST    0,4(0,15)      STORE DCB PARAMETER IN LIST        YM1995 02800000
.RETCK   AIF   ('&ERRET' EQ '').END                                     02850000
         MVI   4(15),X'80'    TURN ON RETURN REQUESTED BIT              02900000
         AIF   ('&ERRET'(1,1) EQ '(').RFORM                             02950000
         LA    0,&ERRET       PICK UP RETURN ADDRESS                    03000000
         ST    0,8(0,15)      STORE RETURN ADDRESS IN PARM LIST         03050000
         AGO   .END                                                     03100000
.RFORM   LA    0,0(0,&ERRET(1)) PICK UP RETURN ADDRESS PARM    @ZA65467 03133300
         ST    0,8(0,15)    STORE RETURN ADDRESS IN PARM LIST  @ZA65467 03166600
         AGO   .END                                                     03200000
.LROUT   CNOP  0,4                                                      03250000
         AIF   (NOT &B(1)).CKEPLOC                                      03300000
&NAME    DC    A(*+&LIST)         ADDRESS OF EP PARAMETER               03350000
         AGO   .CHKDCB                                                  03400000
.CKEPLOC AIF   (&B(2)+&B(3) EQ 0).PUTZERO                               03450000
         AIF   ('&EPLOC&DE'(1,1) EQ '(').E3                             03500000
&NAME    DC    B'&B(3).0000000'    SET DE-EPLOC SW BIT                  03550000
         DC    AL3(&EPLOC&DE)      EPLOC OR DE PARAMETER                03600000
         AGO   .CHKDCB                                                  03650000
.PUTZERO ANOP                                                           03700000
&NAME    DC    A(0)            SUPERVISOR PARAMETER                     03750000
.CHKDCB  AIF   ('&DCB' EQ '').ZERODCB                                   03800000
         AIF   ('&DCB'(1,1) EQ '(').E3                                  03850000
         AIF   ('&ERRET' EQ '').DCBNORE                                 03900000
         AIF   ('&ERRET'(1,1) EQ '(').E3                                03950000
         DC    X'80'          RETURN REQUEST INDICATOR BIT SET          04000000
         DC    AL3(&DCB)      DCB ADDRESS PARAMETER                     04050000
         DC    A(&ERRET)      RETURN ADDRESS PARAMETER                  04100000
         AGO   .CHKEP                                                   04150000
.DCBNORE DC    A(&DCB)        DCB ADDRESS PARAMETER                     04200000
         AGO   .CHKEP                                                   04250000
.ZERODCB AIF   ('&ERRET' EQ '').NODCBRE                                 04300000
         AIF   ('&ERRET'(1,1) EQ '(').E3                                04350000
         DC    X'80'          RETURN REQUEST INDICATOR BIT SET          04400000
         DC    AL3(0)         DCB ADDRESS PARAMETER                     04450000
         DC    A(&ERRET)      RETURN ADDRESS PARAMETER                  04500000
         AGO   .CHKEP                                                   04550000
.NODCBRE DC    A(0)           DCB ADDRESS PARAMETER                     04600000
.CHKEP   AIF   (NOT &B(1)).END                                          04650000
         DC    CL8'&EP'       EP PARAMETER                              04700000
         AGO   .END                                                     04750000
.IROUT   AIF   (&B(1)+&B(2)+&B(3) NE 1).E4                              04800000
&CTR     SETA  12+8*&B(1)+4*&B(4)                                       04850000
         CNOP  0,4                                                      04900000
         BAL   15,*+&CTR          BRANCH AROUND CONSTANTS               04950000
         AIF   (NOT &B(1)).NOEP                                         05000000
         DC    A(*+&LIST)         ADDR. OF PARM. LIST                   05050000
         AGO   .DCB                                                     05100000
.NOEP    AIF   ('&EPLOC&DE'(1,1) EQ '(').ZERODE                         05150000
         DC    B'&B(3).0000000'    SET DE-EPLOC SW BIT                  05200000
         DC    AL3(&EPLOC&DE)      EPLOC OR DE PARAMETER                05250000
         AGO   .DCB                                                     05300000
.ZERODE  DC    A(0)           EPLOC OR DE PARAMETER                     05350000
.DCB     AIF   ('&DCB' EQ '').ZDCB                                      05400000
         AIF   ('&DCB'(1,1) EQ '(').NODCRET                             05450000
         AIF   ('&ERRET' EQ '').NORETDC                                 05500000
         DC    X'80'               RETURN REQUESTED BIT SET             05550000
         DC    AL3(&DCB)           DCB ADDRESS PARAMETER                05600000
         AIF   ('&ERRET'(1,1) EQ '(').RFRM                              05650000
         DC    A(&ERRET)           ERROR ADDRESS PARAMETER              05700000
         AGO   .EPCHECK                                                 05750000
.NORETDC DC    A(&DCB)             DCB ADDRESS PARAMETER                05800000
         AGO   .EPCHECK                                                 05850000
.NODCRET DC    A(0)               DCB ADDRESS PARAMETER                 05900000
         AIF   (NOT &B(4)).EPCHECK                                      05950000
         AIF   ('&ERRET'(1,1) EQ '(').RFRM                              06000000
         DC    A(&ERRET)          RETURN ADDRESS PARAMETER              06050000
         AGO   .EPCHECK                                                 06100000
.RFRM    DC    A(0)                ERROR ADDRESS PARAMETER              06150000
         AGO   .EPCHECK                                                 06200000
.ZDCB    AIF   ('&ERRET' EQ '').NODCH0                                  06250000
         DC    X'80'               RETURN REQUESTED INDICATOR           06300000
         DC    AL3(0)              DCB ADDRESS PARAMETER                06350000
         AIF   ('&ERRET'(1,1) EQ '(').ZERORET                           06400000
         DC    A(&ERRET)           RETURN ADDRESS PARAMETER             06450000
         AGO   .EPCHECK                                                 06500000
.ZERORET DC    A(0)                RETURN ADDRESS PARAMETER             06550000
         AGO   .EPCHECK                                                 06600000
.NODCH0  DC    A(0)                DCB ADDRESS PARAMETER                06650000
.EPCHECK AIF   (NOT &B(1)).ACTION                                       06700000
         DC    CL8'&EP'            EP PARAMETER                         06750000
.ACTION  AIF   (&B(1)).TESTDCB                                          06800000
         AIF   ('&EPLOC&DE'(1,1) NE '(').TESTDCB                        06850000
         LA    0,0(0,&EPLOC(1)&DE(1)) PICKUP EPLOC OR DE PARM  @ZA65467 06883300
         ST    0,0(0,15)      STORE IN SUP. PARM LIST          @ZA65467 06916600
         AIF   (NOT &B(3)).TESTDCB                                      06950000
         MVI   0(15),X'80'              SET DE SWITCH BIT ON            07000000
.TESTDCB AIF   ('&DCB' EQ '').ERTEST                                    07050000
         AIF   ('&DCB'(1,1) NE '(').ERTEST                              07100000
         LA    0,0(0,&DCB(1))      PICK UP DCB ADDRESS         @ZA65467 07133300
         ST    0,4(0,15)      STORE DCB ADDRESS IN SUP PARMS   @ZA65467 07166600
         AIF   ('&ERRET' EQ '').END                                     07200000
         MVI   4(15),X'80'              SET RETURN REQUESTED BIT ON     07250000
         AGO   .CONTERR                                                 07300000
.ERTEST  AIF   ('&ERRET' EQ '').END                                     07350000
.CONTERR AIF   ('&ERRET'(1,1) NE '(').END                               07400000
         LA    0,0(0,&ERRET(1))    PICK UP ERROR ADDRESS       @ZA65467 07433300
         ST    0,8(0,15)      STORE ERROR ADDRESS PARAMETER    @ZA65467 07466600
.END     MEND                                                           07500000
