         MACRO                                                          00020000
&NAME    IHBRDWRD &DECB,&TYPE,&DCB,&AREA,&LENGTH,&KEYADR,&RCDREF,&NEXT,X00030019
               &MF=I                                                    00040019
.*       CHANGE LEVEL 01   06JUL72                                      00050021
         GBLB  &IHBWR,&IHBT(2),&IHBS(4)                                 00060000
         LCLB  &B1,&B2,&B3,&B4,&B5,&B6,&B7,&B8,&B9,&BA,&NULL,&ISW       00080019
         LCLC  &PARA,&D                                                 00100019
         LCLB  &ESW,&Z1,&Z2,&Z3                                         00120000
         LCLA  &CTR,&CTRA,&L1,&L2  SET A SYMBOL                         00126019
         LCLB  &CHAR5              5TH CHAR FOR TYPE                    00132019
&CHAR5   SETB  (K'&TYPE EQ 5)      SET IF TYPE IS 5 CHAR                00138019
&L1      SETA  K'&TYPE             LAST CHAR OF TYPE                    00144019
&L2      SETA  K'&TYPE-1          LAST-1 CHAR OF TYPE                   00150019
&CTRA    SETA  111+30*&IHBWR                                            00160000
         AIF   (&L2 LT 1).E3      MORE THAN 1 TYPE CHAR?         M3543  00161020
&B9      SETB  ('&TYPE'(&L1,1) EQ 'R' OR '&TYPE'(&L2,1) EQ 'R')         00162019
.*                                 SET IF 'R' IS SPECIFIED              00164019
&BA      SETB  ('&TYPE'(&L1,1) EQ 'U' OR '&TYPE'(&L2,1) EQ 'U')         00166019
.*                                 SET IF 'U' IS SPECIFIED              00168019
&D       SETC  'NEXT ADD'               FOR ERROR MSG                   00170019
         AIF   ('&NEXT' EQ '' AND &B9 AND '&MF' EQ 'I').E13  ERROR      00172019
         AIF   (NOT &B9 AND &BA).E13    ERROR                           00174019
         AIF   ('&MF' NE 'L').BD1                                       00180000
         AIF   ('&DECB'(1,1) EQ '(').E5                                 00200000
&NAME    DS    0F                                                       00220000
&DECB    DC    A(0)                              EVENT CONTROL BLOCK    00240000
         AIF   (&IHBS(1)).ALLDONE                                       00260000
.SETROUT AIF   (&IHBS(2)+&IHBS(3)+&IHBS(4)+&CHAR5 NE 1).E1  MNOTE       00280019
&B7      SETB  ('&TYPE'(2,1) EQ 'K')                                    00300000
&B8      SETB  ('&TYPE'(2,1) EQ 'A')                                    00320000
&NULL    SETB  ('&TYPE'(2,1) EQ 'I')                                    00340000
         AIF   (&B7+&B8+&NULL NE 1).E2                                  00360000
         AIF   (NOT &IHBWR AND &B8).E2                                  00380000
         AIF   (&IHBS(2)).ALLDONE                                       00400000
&B3      SETB  ('&TYPE'(3,1) EQ 'X')                                    00420000
&B1      SETB  ('&TYPE'(3,1) EQ 'F')                                    00440000
&B9      SETB  ('&TYPE'(3,1) EQ 'R')    SET IF 'R'                      00450019
&BA      SETB  ('&TYPE'(3,1) EQ 'U')    SET IF 'U'                      00460019
         AIF   ( NOT(&B1 OR &B3 OR &B9 OR &BA)).E3 INVALID TYPE         00470019
         AIF   (&B3 AND &B8).E3                                         00480000
         AIF   (&IHBS(3)).ALLDONE                                       00500000
&B3      SETB  ('&TYPE'(4,1) EQ 'X' OR '&TYPE'(3,1) EQ 'X') TYPE        00510019
&B9      SETB  ('&TYPE'(4,1) EQ 'R')    SET IF 'R'                      00520019
&BA      SETB  ('&TYPE'(4,1) EQ 'U')    SET IF 'U'                      00530019
         AIF   (NOT (&B3 OR &BA OR &B9)).E4  INVALID TYPE               00540019
         AIF   (&IHBS(4)).ALLDONE       GOTO ALL DONE                   00550019
         AIF   (NOT('&TYPE'(5,1) EQ 'R' OR '&TYPE'(5,1) EQ 'U')).E4     00560019
.*                                 TYPE ERROR                           00570019
.ALLDONE ANOP                                                           00580000
&B2      SETB  ('&AREA' EQ '''S''')                                     00600000
&B4      SETB  ('&KEYADR' EQ '''S''')                                   00620000
&B5      SETB  ('&LENGTH' EQ '''S''')                                   00640000
&B6      SETB  (NOT &IHBWR)                                             00660000
&B9      SETB  ('&TYPE'(&L1,1) EQ 'R' OR '&TYPE'(&L2,1) EQ 'R')         00664019
.*                                 SET IF 'R' IS SPECIFIED              00668019
&BA      SETB  ('&TYPE'(&L1,1) EQ 'U' OR '&TYPE'(&L2,1) EQ 'U')         00672019
.*                                 SET IF 'U' IS SPECIFIED              00676019
         AIF   (&ESW).ERETURN                                           00680000
         DC    BL1'000&B1.0&B2&B3.0'             TYPE FIELD             00700000
         DC    BL1'&B4&B5&BA&B9&B6&B7&B8.0'  TYPE FIELD                 00720019
         AIF   (&ISW).IRETURN                                           00740000
         AIF   (&B5 OR '&LENGTH' EQ '').PUTZERA                         00760000
         AIF   ('&LENGTH'(1,1) EQ '(').E5                               00780000
         DC    AL2(&LENGTH)                      LENGTH                 00800000
         AGO   .CHKDCB                                                  00820000
.E1      IHBERMAC 48,&CTRA,&TYPE                                        00840000
         MEXIT                                                          00860000
.E2      IHBERMAC 64,&CTRA,&TYPE                                        00880000
         MEXIT                                                          00900000
.E3      IHBERMAC 65,&CTRA,&TYPE                                        00920000
         MEXIT                                                          00940000
.E4      IHBERMAC 66,&CTRA,&TYPE                                        00960000
         MEXIT                                                          00980000
.E5      IHBERMAC 69,&CTRA                                              01000000
         MEXIT                                                          01020000
.E6      IHBERMAC 87,&CTRA                                              01040000
         MEXIT                                                          01060000
.PUTZERA DC    AL2(0)                            LENGTH                 01080000
.CHKDCB  AIF   ('&DCB' EQ '').NODCB                                     01100000
         AIF   ('&DCB'(1,1) EQ '(').E5                                  01120000
         DC    A(&DCB)                           DCB ADDRESS            01140000
         AGO   .CHKAREA                                                 01160000
.NODCB   DC    A(0)                              DCB ADDRESS            01180000
.CHKAREA AIF   (&B2 OR '&AREA' EQ '').NOAREA                            01200000
         AIF   ('&AREA'(1,1) EQ '(').E5                                 01220000
         DC    A(&AREA)                          AREA ADDRESS           01240000
         AGO   .CHKIOB                                                  01260000
.NOAREA  DC    A(0)                              AREA ADDRESS           01280000
.CHKIOB  DC    A(0)                              IOB ADDRESS            01300000
.CHKKEY  AIF   (&B4 OR '&KEYADR' EQ '').NOKEY                           01320000
         AIF   ('&KEYADR'(1,1) EQ '(').E5                               01340000
         DC    A(&KEYADR)                        KEY ADDRESS            01360000
         AGO   .CHKRR                                                   01380000
.NOKEY   DC    A(0)                              KEY ADDRESS            01400000
.CHKRR   AIF   ('&RCDREF' EQ '').NORR                                   01420000
         AIF   ('&RCDREF'(1,1) EQ '(').E5                               01440000
         DC    A(&RCDREF)                        BLKREF ADDRESS         01460000
         AGO   .CHKFD1             GOTO CHECK NEXT ADDR                 01480019
.NORR    DC    A(0)                              BLKREF ADDRESS         01500000
.CHKFD1  AIF   ('&NEXT' EQ '').NONXTAD  NO &NEXT,SEE IF RQUIRED SA52366 01505021
         AIF   ('&NEXT'(1,1) EQ '(').E5      GOTO ERROR                 01510019
         DC    AL4(&NEXT)          NEXT ADDRESS                         01515019
         AGO   .END                                                     01520000
.NONXTAD AIF   (NOT &B9).END            BR IF R NOT CODED       SA52366 01530021
         DC    A(0)                NEXT ADDRESS                         01532021
         MEXIT                                                  SA52366 01534021
.BD1     AIF   ('&MF' NE 'I').EROUT                                     01540000
         AIF   ('&DECB'(1,1) EQ '(').E6                                 01560000
         CNOP  0,4                                                      01580000
         AIF   (&B9 AND '&NEXT' EQ '').E13   GOTO MNOTE                 01583019
         AIF   (NOT &B9).NONOFD    SKIP NEXT ADDRESS                    01586019
&NAME    BAL   1,*+36              LOAD DECB ADDRESS                    01589019
         AGO   .GOGOGO             SKIP TO CHECK DECB                   01592019
.NONOFD  ANOP                                                           01595019
&NAME    BAL   1,*+32                            LOAD DECB ADDRESS      01600000
.GOGOGO  ANOP                                                           01610019
&DECB    DC    A(0)                              EVENT CONTROL BLOCK    01620000
&ISW     SETB  1                                                        01640000
         AGO   .SETROUT                                                 01660000
.IRETURN AIF   ('&LENGTH' EQ '').PUTZERB                                01680000
         AIF   ('&LENGTH'(1,1) EQ '(' OR &B5).PUTZERB                   01700000
         DC    AL2(&LENGTH)                      LENGTH                 01720000
         AGO   .CKDCB                                                   01740000
.PUTZERB DC    AL2(0)                            LENGTH                 01760000
.CKDCB   AIF   ('&DCB' EQ '').E8                                        01780000
         AIF   ('&DCB'(1,1) EQ '(').PUTZERC                             01800000
         DC    A(&DCB)                           DCB ADDRESS            01820000
         AGO   .CKAREA                                                  01840000
.PUTZERC DC    A(0)                              DCB ADDRESS            01860000
.CKAREA  AIF   ('&AREA' EQ '').E9                                       01880000
         AIF   (&B2 OR '&AREA'(1,1) EQ '(').PUTZERD                     01900000
         DC    A(&AREA)                          AREA ADDRESS           01920000
         AGO   .CKIOB                                                   01940000
.PUTZERD DC    A(0)                              AREA ADDRESS           01960000
.CKIOB   DC    A(0)                              IOB ADDRESS            01980000
.CKKEY   AIF   ('&KEYADR' EQ '').E11                                    02000000
         AIF   ('&KEYADR'(1,1) EQ '(' OR &B4).PUTZERF                   02020000
         DC    A(&KEYADR)                        KEY ADDRESS            02040000
         AGO   .CKRR                                                    02060000
.PUTZERF DC    A(0)                              KEY ADDRESS            02080000
.CKRR    AIF   ('&RCDREF' EQ '').E10                                    02100000
         AIF   ('&RCDREF'(1,1) EQ '(').PUTZERE                          02120000
         DC    A(&RCDREF)                        BLKREF ADDRESS         02140000
         AGO   .CONT                                                    02160000
.PUTZERE DC    A(0)                              BLKREF ADDRESS         02180000
.CONT    AIF   (NOT &B9).CONTIN    NO &NEXT,SKIP EXPANSION              02185019
         AIF   ('&NEXT'(1,1) EQ '(').FEEDRG  GOTO REG &NEXT             02190019
         DC    AL4(&NEXT)          NEXT ADDRESS                         02195019
         AGO   .CONTIN             GOTO CHECK &LENGTH                   02200019
.FEEDRG  DC    AL4(0)              NEXT ADDRESS                         02205019
         ST    &NEXT(1),28(0,1)    STORE NEXT ADDRESS                   02210019
.CONTIN  AIF   ('&LENGTH' EQ '').TSTDCB      GOTO TEST DCB              02215019
         AIF   ('&LENGTH'(1,1) NE '(').TSTDCB                           02220000
         STH   &LENGTH(1),6(0,1)                 STORE LENGTH           02240000
.TSTDCB  AIF   ('&DCB'(1,1) NE '(').TSTAREA                             02260000
         ST    &DCB(1),8(0,1)                    STORE DCB ADDRESS      02280000
.TSTAREA AIF   ('&AREA'(1,1) NE '(').TSTRR                              02300000
         ST    &AREA(1),12(0,1)                  STORE AREA ADDRESS     02320000
.TSTRR   AIF   ('&RCDREF'(1,1) NE '(').TSTKEY                           02340000
         ST    &RCDREF(1),24(0,1)                STORE BLKREF ADDRESS   02360000
.TSTKEY  AIF   ('&KEYADR'(1,1) NE '(').CONTA                            02380000
         ST    &KEYADR(1),20(0,1)                   STORE KEY ADDRESS   02400000
.CONTA   AIF   ('&DCB' EQ '').CONTAA                                    02420000
         AIF   ('&DCB'(1,1) EQ '(').REGDCB                              02440000
&CTR     SETA  K'&DCB                                                   02460000
         AIF   ('&DCB'(&CTR,1) EQ ')').CONTAA                           02480000
         L     15,&DCB+48                        LOAD RDWR ROUTINE ADDR 02500000
         AGO   .FINISH                                                  02520000
.CONTAA  L     15,8(0,1)                         LOAD DCB ADDRESS       02540000
         L     15,48(0,15)                       LOAD RDWR ROUTINE ADDR 02560000
.FINISH  BALR  14,15                             LINK TO RDWR ROUTINE   02580000
         AGO   .END                                                     02600000
.REGDCB  L     15,48(0,&DCB(1))                  LOAD RDWR ROUTINE ADDR 02620000
         AGO   .FINISH                                                  02640000
.EROUT   AIF   ('&MF(1)' NE 'E').E12                                    02660000
         AIF   ('&DECB'(1,1) EQ '(').DECBREG                            02680000
&NAME    LA    1,&DECB                           LOAD DECB ADDRESS      02700000
.CONTBAC ANOP                                                           02720000
         AIF   (&IHBS(1)).NOTYPE                                        02740000
&ESW     SETB  1                                                        02760000
         AGO   .SETROUT                                                 02780000
.DECBREG AIF   ('&DECB' EQ '(1)').NAMEIT                                02800000
&NAME    LR    1,&DECB(1)                        LOAD DECB ADDRESS      02820000
         AGO   .CONTBAC                                                 02840000
.NAMEIT  AIF   ('&NAME' EQ '').CONTBAC                                  02860000
&NAME    DS    0H                                                       02880000
         AGO   .CONTBAC                                                 02900000
.ERETURN ANOP                                                           02920000
&Z1      SETB  ('&AREA' EQ '')                                          02940000
&Z2      SETB  ('&KEYADR' EQ '')                                        02960000
&Z3      SETB  ('&LENGTH' EQ '')                                        02980000
         AIF   (&Z1+&Z2+&Z3 NE 0).CONTC                                 03000000
&CTR     SETA  16*&B1+4*&B2+2*&B3                                       03020000
         MVI   4(1),&CTR                         SET TYPE FIELD         03040000
&CTR     SETA  128*&B4+64*&B5+32*&BA+8*&B6+4*&B7+2*&B8+16*&B9 TYPE      03060019
         MVI   5(1),&CTR                         SET TYPE FIELD         03080000
         AGO   .CONTD                                                   03100000
.CONTC   AIF   (&Z1).CONTE                                              03120000
&CTR     SETA  16*&B1+4*&B2+2*&B3                                       03140000
         MVI   4(1),&CTR                         SET TYPE FIELD         03160000
         AGO   .CONTF                                                   03180000
.CONTE   NI    4(1),4                            MODIFY TYPE FIELD      03200000
&CTR     SETA  16*&B1+2*&B3                                             03220000
         AIF   (&CTR EQ 0).CONTF                                        03240000
         OI    4(1),&CTR                         MODIFY TYPE FIELD      03260000
.CONTF   AIF   (&Z2 OR &Z3).CONTG                                       03280000
&CTR     SETA  128*&B4+64*&B5+32*&BA+8*&B6+4*&B7+2*&B8+16*&B9 TYPE      03300019
         MVI   5(1),&CTR                         SET TYPE FIELD         03320000
         AGO   .CONTD                                                   03340000
.CONTG   ANOP                                                           03360000
&CTR     SETA  128*&Z2+64*&Z3                                           03380000
         NI    5(1),&CTR                         MODIFY TYPE FIELD      03400000
&CTR     SETA  128*&B4+64*&B5+32*&BA+8*&B6+4*&B7+2*&B8+16*&B9 TYPE      03420019
         AIF   (&CTR EQ 0).CONTD                                        03440000
         OI    5(1),&CTR                         MODIFY TYPE FIELD      03460000
         AGO   .CONTD                                                   03480000
.NOTYPE  AIF   ('&AREA' EQ '').CONTH                                    03500000
         AIF   ('&AREA' EQ '''S''').CONTI                               03520000
         NI    4(1),18                           MODIFY TYPE FIELD      03540000
         AGO   .CONTH                                                   03560000
.CONTI   OI    4(1),4                            MODIFY TYPE FIELD      03580000
.CONTH   AIF   ('&KEYADR' EQ '' AND '&LENGTH' EQ '').CONTJ              03600000
&B4      SETB  ('&KEYADR' EQ '''S''')                                   03620000
&B5      SETB  ('&LENGTH' EQ '''S''')                                   03640000
&B6      SETB  (NOT &IHBWR)                                             03660000
         AIF   ('&KEYADR' EQ '').CONTK                                  03680000
         AIF   ('&LENGTH' EQ '').CONTL                                  03700000
         NI    5(1),6                            MODIFY TYPE FIELD      03720000
&CTR     SETA  128*&B4+64*&B5+8*&B6                                     03740000
         AIF   (&CTR EQ 0).CONTD                                        03760000
         OI    5(1),&CTR                         MODIFY TYPE FIELD      03780000
         AGO   .CONTD                                                   03800000
.CONTL   NI    5(1),70                           MODIFY TYPE FIELD      03820000
&CTR     SETA  128*&B4+8*&B6                                            03840000
         AIF   (&CTR EQ 0).CONTD                                        03860000
         OI    5(1),&CTR                         MODIFY TYPE FIELD      03880000
         AGO   .CONTD                                                   03900000
.CONTK   NI    5(1),134                          MODIFY TYPE FIELD      03920000
&CTR     SETA  64*&B5+8*&B6                                             03940000
         AIF   (&CTR EQ 0).CONTD                                        03960000
         OI    5(1),&CTR                         MODIFY TYPE FIELD      03980000
         AGO   .CONTD                                                   04000000
.CONTJ   AIF   (&IHBWR).CONTM                                           04020000
         OI    5(1),8                            MODIFY TYPE FIELD      04040000
         AGO   .CONTD                                                   04060000
.CONTM   NI    5(1),198                          MODIFY TYPE FIELD      04080000
.CONTD   AIF   ('&LENGTH' EQ '' OR '&LENGTH' EQ '''S''').XLENGTH        04100000
         AIF   ('&LENGTH'(1,1) NE '(').NOREGA                           04120000
         STH   &LENGTH(1),6(0,1)                 STORE LENGTH           04140000
         AGO   .XLENGTH                                                 04160000
.NOREGA  AIF   (NOT &IHBT(1)).LARGEL                                    04180000
         AIF   (&LENGTH GT 4095).LARGEL                                 04200000
         LA    14,&LENGTH.(0,0)                  PICK UP LENGTH         04220000
         STH   14,6(0,1)                         STORE LENGTH           04240000
         AGO   .XLENGTH                                                 04260000
.LARGEL  B     *+6                               BRANCH AROUND LENGTH   04280000
         DC    AL2(&LENGTH)                      LENGTH                 04300000
         MVC   6(2,1),*-2                        MOVE IN LENGTH         04320000
.XLENGTH AIF   ('&DCB' EQ '').XDCB                                      04340000
         AIF   ('&DCB'(1,1) EQ '(').DCBRG                               04360000
         LA    14,&DCB                           PICK UP DCB ADDRESS    04380000
         ST    14,8(0,1)                         STORE DCB ADDRESS      04400000
         AGO   .XDCB                                                    04420000
.DCBRG   ST    &DCB(1),8(0,1)                    STORE DCB ADDRESS      04440000
.XDCB    AIF   ('&AREA' EQ '' OR '&AREA' EQ '''S''').XAREA              04460000
         AIF   ('&AREA'(1,1) EQ '(').AREARG                             04480000
         LA    14,&AREA                          PICK UP AREA ADDRESS   04500000
         ST    14,12(0,1)                        STORE AREA ADDRESS     04520000
         AGO   .XAREA                                                   04540000
.AREARG  ST    &AREA(1),12(0,1)                  STORE AREA ADDRESS     04560000
.XAREA   AIF   ('&RCDREF' EQ '').XRR                                    04580000
         AIF   ('&RCDREF'(1,1) EQ '(').RRREG                            04600000
         LA    14,&RCDREF                        PICK UP BLKREF ADDRESS 04620000
         ST    14,24(0,1)                        STORE BLKREF ADDRESS   04640000
         AGO   .XRR                                                     04660000
.RRREG   ST    &RCDREF(1),24(0,1)                STORE BLKREF ADDRESS   04680000
.XRR     AIF   ('&KEYADR' EQ '' OR '&KEYADR' EQ '''S''').CONTAAA        04700019
         AIF   ('&KEYADR'(1,1) EQ '(').KEYREG                           04720000
         LA    14,&KEYADR                        PICK UP KEY ADDRESS    04740000
         ST    14,20(0,1)                        STORE KEY ADDRESS      04760000
         AGO   .CONTAAA            GOTO CHECK &NEXT                     04780019
.KEYREG  ST    &KEYADR(1),20(0,1)                STORE KEY ADDRESS      04800000
.CONTAAA AIF   (NOT &B9 OR '&NEXT' EQ '').CONTA   SKIP,NO NEXT          04802019
         AIF   ('&NEXT'(1,1) EQ '(').REGFDD  GOTO &NEXT IN REG          04804019
         LA    14,&NEXT            LOAD NEXT ADDRESS                    04806019
         ST    14,28(0,1)          STORE NEXT ADDRESS IN DECB           04808019
         AGO   .CONTA              GOTO CHECK &DCB                      04810019
.REGFDD  ST    &NEXT(1),28(0,1)    STORE NEXT ADDRESS IN DECB           04812019
         AGO   .CONTA                                                   04820000
.E8      IHBERMAC 06,&CTRA                                              04840000
         MEXIT                                                          04860000
.E9      IHBERMAC 13,&CTRA                                              04880000
         MEXIT                                                          04900000
.E10     IHBERMAC 12,&CTRA                                              04920000
         MEXIT                                                          04940000
.E11     IHBERMAC 08,&CTRA                                              04960000
         MEXIT                                                          04980000
.E12     IHBERMAC 35,&CTRA,&MF                                          05000000
         MEXIT                    GET OUT                               05006019
.E13     IHBERMAC 46,,&D           NEXT ADDRESS IS MISSING              05012019
.END     MEND                                                           05020000
