* %GOTO IKJEXECPLS;                       /*                            00002003
         MACRO                                                          00006003
&NAME    IKJEXEC &LV=,&A=    MACRO FOR ISSUING OWN GETMAIN              00008003
         GBLA  &IKJEXA                                                  00010003
         AIF   ('&SYSECT.' NE 'IKJCT433').IKJT436 TEST ID 433/436       00014003
         AIF   (&IKJEXA NE 0).T3FMAN    TEST IF FIRST CALL              00018003
&IKJEXA SETA 1                                                          00020003
&NAME    LA    @00,4092      GET 4092 TO ADD TO COMPILERS SIZE          00022003
         AL    @00,@SIZDATD  ADD COMPILERS SIZE AND SUBPOOL             00026003
         GETMAIN R,LV=(0)    GETMAIN                                    00030003
         LR    @08,@01       GET ADDRESSABLILITY TO COMMON AREA         00032003
         LA    @01,4092(0,@01) ADD 4092 AND GIVE NORMAL AREA TO COMPLR  00034003
         MEXIT                                                          00037003
.T3FMAN  ANOP                                                           00040003
&NAME    LA    @00,4092      GET 4092 CONSTANT TO ADD TO SIZDATD        00043003
         AL    @00,@SIZDATD  GET SUBPOOL AND NORMAL SIZE                00046003
         FREEMAIN R,LV=(0),A=(8)                                        00050003
         MEXIT                                                          00053003
.IKJT436 ANOP                                                           00057003
         AIF   (&IKJEXA NE 0).T6FMAN   TEST IF FIRST CALL               00059003
&IKJEXA SETA 1                                                          00061003
&NAME    LA    @01,300(0,@08) USE AREA GOTTEN IN 433 (SKIP COMMON)      00064003
         MEXIT                                                          00067003
.T6FMAN  ANOP                                                           00070003
&NAME    NOPR  @00                                                      00073003
         MEND                                                           00076003
*  */                                                                   00080003
 %IKJEXECPLS: ;                                                         00083003
                                                                        00087003
 @EJECT;                                                                00089003
 /********************************************************************/ 00091003
 /*                                                                  */ 00094003
 /* *** IKJEXEC ***      LEVEL=11/05/75     OS/VS2 RELEASE 3.0       */ 00097000
 /*                                                                  */ 00100003
 /* DESCRIPTION - PLS MAPPING MACRO FOR CONTROL BLOCKS USED BY THE   */ 00103003
 /*               TSO EXEC COMMAND PROCESSOR                         */ 00106003
 /*                                                                  */ 00110003
 /* FUNCTION    - CONTAINS CONTROL BLOCK MAPPINGS FOR THE FOLLOWING  */ 00113003
 /*               DATA AREAS USED BY THE TSO EXEC COMMAND            */ 00117003
 /*                 - PHASE 1 EXEC COMMAND COMMON DATA AREA          */ 00119003
 /*                 - EXECDATA CONTROL BLOCK                         */ 00121003
 /*                 - COMMAND PROCEDURE STORAGE BLOCK                */ 00124003
 /*                 - SYMBOLIC NAME TABLE (SNTAB)                    */ 00127003
 /*                 - SYMBOLIC VALUE TABLE (SVTAB)                   */ 00130003
 /*                 - SNTAB CONTROL SYMBOLIC PARAMETER AREA          */ 00133003
 /*                 - PHASE2 COMMON DECLARES                         */ 00136003
 /*                                                                  */ 00140003
 %GOTO PROEND;                                                          00143003
 /* METHOD OF ACCESS                                                 */ 00147003
 /*             - PHASE 1 EXEC COMMAND DATA AREA                     */ 00149003
 /*                 %IKJECDA='' TO INCLUDE MAP                       */ 00151003
 /*                 %ECDABASE='ANY BASE'  - - - DEFAULT IS           */ 00154003
 /*                                            BASED(ECDAPTR)        */ 00157003
 /*             - EXECDATA CONTROL BLOCK                             */ 00161003
 /*                 %IKJEDAT='' TO INCLUDE MAP                       */ 00164003
 /*                 %EDATBASE='ANY BASE' - - DEFAULT IS              */ 00167003
 /*                                         BASED(LSDEXEC)           */ 00170003
 /*             - COMMAND PROCEDURE STORAGE BLOCK                    */ 00173003
 /*                 %IKJCOMP='' TO INCLUDE MAP                       */ 00176003
 /*                 %COMPBASE='ANY BASE' - - DEFAULT IS              */ 00180003
 /*                                         BASED(ECDACBLK)          */ 00183003
 /*             - SYMBOLIC NAME TABLE AND ELEMENT                    */ 00186003
 /*                 %IKJNTAB='' TO INCLUDE MAP                       */ 00188003
 /*               SNTAB TABLE IS BASED ON SNTABPTR (INCLUDED)        */ 00192003
 /*               SNTAB ELEMENT IS BASED ON SNTELPTR (INCLUDED UNLESS*/ 00194003
 /*                 %IKJSNTELPTR='NO' NOT TO INCLUDE SNTELPTR        */ 00197003
 /*                                                                  */ 00200003
 /*             - SYMBOLIC VALUE TABLE AND ELEMENT                   */ 00203003
 /*                 %IKJVTAB='' TO INCLUDE MAP                       */ 00207003
 /*               SVTAB TABLE IS BASED ON SVTABPTR (INCLUDED)        */ 00209003
 /*                 %SVELBASE='ANY BASE' - USE TO SET SVTAB ELEMENT  */ 00211003
 /*                                       BASE. THE DEFAULT IS       */ 00214003
 /*                                       BASED(SNTVLPTR)            */ 00218003
 /*             - SNTAB CONTROL SYMBOLIC PARAMETER AREA              */ 00222003
 /*                 %IKJCVMAP='' TO INCLUDE MAP                      */ 00225003
 /*                 %CVARBASE='ANY BASE' - - DEFAULT IS              */ 00228003
 /*                                         BASED(SNTELFST)          */ 00231003
 /*             - PHASE2 COMMON DECLARES                             */ 00234003
 /*                 NORMALLY NOT INCLUDED. TO INCLUDE                */ 00237003
 /*                 SET %IKJEXECPHASE2='YES'                         */ 00240003
 /*                                                                  */ 00243003
 /*                                                                  */ 00246003
 /*           %INCLUDE SYSLIB(IKJEXEC)                               */ 00248003
 /*                                                                  */ 00252003
 /* NOTES        - IF AN INDIVIDUAL DATA AREA MAP IS NOT REQUIRED    */ 00254003
 /*                THEN SET THE APPROPRIATE MACRO VARIABLE TO A      */ 00257003
 /*                NON NULL STATE                                    */ 00260003
 /*                                                                  */ 00263003
 /* CHANGE ACTIVITY =                                                */ 00264000
 /* ADD NOLASTCC BIT IN EXECDATA CONTROL BLOCK               @ZA03879*/ 00265000
 /* A 020450                                                @OZ32353 */ 00266000
 /*                                                                  */ 00267003
 %PROEND: ;                                                             00269003
 /********************************************************************/ 00271003
 @EJECT;                                                                00274003
    %NPAGE='@EJECT';                                                    00277003
    %IF IKJECDA^='' %THEN                                               00280003
      %GOTO EDATCHK;                                                    00283003
    %IF ECDABASE^='' %THEN                                              00286003
      %GOTO ECDA1;                                                      00290003
    %ECDABASE='BASED(ECDAPTR)';                                         00294003
    DCL                                                                 00296003
      ECDAPTR PTR(31);              /* PHASE 1 COMMON DATA ADDRESS   */ 00298003
 %ECDA1:                                                                00302003
    ;                                                                   00306003
                                                                        00308003
    /*****************************************************************/ 00310003
    /*                                                               */ 00314003
    /* PHASE 1 EXEC COMMON DATA AREA                                 */ 00317003
    /*                                                               */ 00320003
    /*****************************************************************/ 00323003
                                                                        00326003
    DCL                                                                 00330003
      1 ECDA ECDABASE,                                                  00332003
       2 ECDACPPL PTR(31),          /* CPPL ADDRESS                  */ 00336003
       2 ECDAGADD PTR(31),          /* ADDRESS OF FIRST SP78 CORE    */ 00338003
       2 ECDAEANS PTR(31),          /* PARSE PDL ADDRESS FOR EXPLICIT   00340003
                                       EXEC                          */ 00343003
       2 ECDALSD PTR(31),           /* LSD FOR THE COMMAND PROCEDURE    00346003
                                       BEING BUILT                   */ 00350003
       2 ECDAIREC PTR(31),          /* CURRENT INPUT RECORD ADDR     */ 00353003
       2 ECDACBLK PTR(31),          /* CURRENT COMMAND PROCEDURE        00357003
                                       BLOCK ADDRESS                 */ 00359003
       2 ECDACPRE PTR(31),          /* LAST COMMAND PROCEDURE RECORD    00361003
                                       ADDRESS                       */ 00364003
       2 ECDACNXT PTR(31),          /* NEXT COMMAND PROCEDURE RECORD    00367003
                                       ADDRESS                       */ 00370003
       2 ECDASPTR PTR(31),          /* ADDRESS OF IOPL PREPARED BY      00373003
                                       IKJCT430 FOR GETALINE RTN     */ 00376003
       2 ECDALCTR FIXED(31),        /* NUMBER OF COMMAND RECORDS READ   00380003
                                       FROM INPUT DATA SET           */ 00383003
       2 ECDALNEL PTR(31),          /* ADDRESS OF LAST SNTAB ELMT    */ 00386003
       2 ECDAGCNT FIXED(31),        /* GLOBAL COUNT AREA             */ 00389003
       2 ECDANDO FIXED(15),         /* OPEN DO COUNT                 */ 00392003
       2 ECDAELNG FIXED(15),        /* ALTERNATE END LENGTH          */ 00395003
       2 ECDAAEND CHAR(4),          /* ALTERNATE END                 */ 00398003
       2 ECDAFLAG CHAR(2),          /* PHASE 1 FLAG AREA             */ 00401003
        3 IMPLICIT BIT(1),          /* ON IF IMPLICIT EXEC           */ 00404003
        3 NOTEXEC BIT(1),           /* ON IF PROCEDURE CAN NOT BE       00407003
                                       EXECUTED DUE TO ERRORS        */ 00410003
        3 SP78CORE BIT(1),          /* ON WHEN SUBPOOL 78 CORE HAS      00413003
                                       BEEN GOTTEN                   */ 00416003
        3 * BIT(1),                                                     00419003
        3 * BIT(1),                                                     00422003
        3 SP78BLK BIT(1),           /* ON IF CORE HAS BEEN GOTTEN FOR   00425003
                                       THE EXEC TABLES BUT NOT CARVED   00428003
                                       UP                            */ 00431003
        3 NESTED BIT(1),            /* ON IF THIS IS A NESTED EXEC   */ 00434003
       2 * CHAR(2),                                                     00437003
       2 ECDAGETL PTR(31),          /* ADDRESS OF IKJGETL            */ 00440003
       2 ECDAGDAT PTR(31),          /* ADDRESS OF GLOBAL EXECDATA    */ 00443003
       2 ECDACPGM PTR(31),          /* SIZE OF CMD PROC GETMAIN      */ 00446003
       2 ECDAINME PTR(31),         /* ADDR OF IMPLICIT NAME          */ 00449003
        3 ECDAILNG PTR(8);         /* LENGTH OF IMPLICIT NAME        */ 00452003
    DCL                                                                 00455003
      CPPLPTR PTR(31) DEF(ECDACPPL);/* ADDRESS OF CPPL               */ 00458003
 NPAGE;                                                                 00461003
 %EDATCHK:                                                              00464003
    IF IKJEDAT^=''                                                      00467003
        %THEN                                                           00470003
      %GOTO COMPCHK;                                                    00473003
                                                                        00476003
    DCL                                                                 00480003
    /*****************************************************************/ 00482003
    /*                                                               */ 00486003
    /* EXECDATA CONTROL BLOCK                                        */ 00488003
    /*                                                               */ 00490003
    /*****************************************************************/ 00493003
                                                                        00496003
    %IF EDATBASE='' %THEN                                               00499003
      %EDATBASE='BASED(LSDEXEC)';                                       00502003
      1 EXECDATA EDATBASE,                                              00505003
       2 SNTABFST PTR(31),          /* ADDRESS OF FIRST SNTAB        */ 00510003
       2 SVTABFST PTR(31),          /* ADDRESS OF THE FIRST SVTAB    */ 00512003
       2 GEXECDAT PTR(31),          /* ADDRESS OF THE GLOBAL EXECDATA*/ 00514003
       2 LASTTSO PTR(31),           /* ADDRESS OF LAST TSO COMMAND      00518003
                                       EXECUTED                      */ 00522003
       2 * PTR(31),                 /*                               */ 00524003
        3 EXINSAVE BIT(8) BDY(BYTE),/* TERMIN INSTACK SAVE AREA      */ 00526003
       2 ERACTSTR PTR(31),          /* ADDRESS OF THE START OF THE      00530003
                                       ERROR ACTION FOR THIS CLIST -    00534003
                                       THIS FIELD IS ZERO WHEN THERE    00536003
                                       IS NO ERROR ACTION            */ 00540003
       2 ERACTEND PTR(31),          /* END OF THE ERROR ACTION RANGE */ 00542003
       2 RETPTR PTR(31),            /* ADDRESS OF THE COMMAND           00544003
                                       FOLLOWING THE ONE IN ERROR    */ 00547003
       2 EXDATFLG CHAR(4),          /* EXEC DATA FLAG AREA           */ 00550003
        3 * BIT(32),                                                    00553003
         4 CONLST BIT(1),           /* ON IF CONTROL STATEMENTS ARE     00556003
                                       TO BE LISTED AS THEY ARE         00560003
                                       EXECUTED                      */ 00563003
         4 ERRCMD BIT(1),           /* ON IF AN ERROR COMMAND IS IN     00566003
                                       EFFECT                        */ 00570003
         4 NOFLUSH BIT(1),          /* ON IF NOFLUSH OPTION IN EFFECT*/ 00572003
         4 SYMLST BIT(1),           /* ON IF SYMLIST OPTION IN EFFECT*/ 00576003
         4 ERINCNTL BIT(1),         /* ON WHEN THE PROCESSING IN AN     00578003
                                       ERROR RANGE IS A DIRECT RESULT   00580003
                                       OF A CLIST STMT ERROR         */ 00583003
         4 CMAIN BIT(1),            /* ON FOR CONTROL CLIST (MAIN)   */ 00586003
         4 NOMSG BIT(1),            /* ON FOR NOMSG OPTION           */ 00590003
         4 ATTNCMD BIT(1),          /* ON IF ATTENTION CMD IN EFFECT */ 00593003
         4 ATINCNTL BIT(1),         /* IN ATTN ON BEHALF OF ATTN     */ 00596003
      4 NOLASTCC BIT(1), /* SKIP LASTCC UPDATE AFTER STMT    @ZA03879*/ 00598000
       2 GEXECCNT FIXED(31),        /* NUMBER OF GLOBAL VARIABLES       00600003
                                       SUPPORTED FOR NESTED             00601003
                                       PROCEDURES                    */ 00604003
       2 EXDLMPTR PTR(31),          /* ADDRESS OF TERMIN DELIMS      */ 00607003
       2 ATACTSTR PTR(31),          /* ATTENTION ACTION START        */ 00611003
       2 ATACTEND PTR(31),          /* ATTENTION ACTION END          */ 00614003
       2 RETPTR2  PTR(31),          /* ALTERNATE RETURN POINTER     */  00617003
       2 FILEDCBS PTR(31),          /* ADDRESS OF FILE I/O DCB CHAIN*/  00621003
       2 * PTR(31);                                                     00623003
 NPAGE;                                                                 00627003
 %COMPCHK:                                                              00629003
    IF IKJCOMP^=''                                                      00632003
        %THEN                                                           00635003
      %GOTO NTABCHK;                                                    00638003
                                                                        00641003
    DCL                                                                 00644003
    /*****************************************************************/ 00647003
    /*                                                               */ 00650003
    /* MAPPING OF THE COMMAND PROCEDURE STORAGE BLOCK BUILT BY EXEC  */ 00653003
    /*                                                               */ 00656003
    /*****************************************************************/ 00659003
                                                                        00662003
    %IF COMPBASE='' %THEN                                               00665003
      %COMPBASE='BASED(ECDACBLK)';                                      00668003
      1 COMPROC COMPBASE,                                               00671003
       2 COMPRPTR PTR(31),          /* ADDRESS OF NEXT COMMAND          00674003
                                       PROCEDURE BLOCK               */ 00677003
        4 COMPRID PTR(8),           /* BLOCK NUMBER FOR THIS COMMAND    00681003
                                       PROCEDURE BLOCK               */ 00684003
        4 COMPRNXT PTR(24),         /* ADDRESS OF THE NEXT COMMAND      00687003
                                       PROCEDURE STORAGE BLOCK - THIS   00690003
                                       FIELD IS ZERO IF THIS IS THE     00693003
                                       LAST BLOCK                    */ 00695003
       2 COMPRLNG FIXED(31),        /* LENGTH OF THIS BLOCK          */ 00697003
       2 COMPRUSE FIXED(31),        /* NUMBER OF UNUSED BYTES IN THIS   00701003
                                       BLOCK                         */ 00705003
       2 COMRCDS CHAR(*);           /* COMMAND PROCEDURE RECORD AREA    00707003
                                                                     */ 00709003
 NPAGE;                                                                 00712003
 %NTABCHK:                                                              00715003
    IF IKJNTAB^=''                                                      00718003
        %THEN                                                           00721003
      %GOTO VTABCHK;                                                    00724003
    DCL                                                                 00727003
      SNTABPTR PTR(31);             /* CURRENT SNTAB ADDRESS         */ 00730003
                                                                        00733003
      /***************************************************************/ 00736003
      /*                                                             */ 00739003
      /* SYMBOLIC NAME TABLE                                         */ 00742003
      /*                                                             */ 00745003
      /***************************************************************/ 00748003
    DCL                                                                 00751003
      1 SNTAB BASED(SNTABPTR),      /* SNTAB TABLE HEADER            */ 00754003
       2 SNTABNXT PTR(31),          /* ADDRESS OF NEXT SNTAB         */ 00757003
       2 SNTABLNG FIXED(31),        /* LENGTH OF THIS SNTAB          */ 00760003
       2 SNTABUSE FIXED(31),        /* NUMBER OF BYTES IN THIS SNTAB    00763003
                                       THAT ARE IN USE               */ 00766003
       2 SNTELFST CHAR(*);          /* FIRST SNTAB ELEMENT           */ 00770003
                                                                        00773003
                                                                        00776003
                                                                        00779003
 %IF  IKJSNTELPTR='NO' %THEN                                            00782003
   %GOTO  NOSNTELPTR;                                                   00785003
    DCL                                                                 00788003
      SNTELPTR PTR(31);             /* CURRENT SNTAB ELEMENT ADDRESS */ 00791003
 %NOSNTELPTR: ;                                                         00794003
    /*****************************************************************/ 00797003
    /*                                                               */ 00800003
    /* SYMBOLIC NAME TABLE ELEMENT                                   */ 00803003
    /*                                                               */ 00806003
    /*****************************************************************/ 00810003
    DCL                                                                 00812003
      1 SNTELEM BASED(SNTELPTR),    /* SNTAB ELEMENT                 */ 00816003
       2 SNTVLPTR PTR(31),          /* ADDRESS OF THE SVTAB ELEMENT     00818003
                                       FOR THIS SYMBOLIC PARAMETER OR*/ 00820003
        3 SNTGVAL FIXED(31),        /* THE GLOBAL VARIABLE NAME IF      00825003
                                       PARAMETER IS GLOBAL           */ 00828003
       2 SNTFLAGS CHAR(2),          /* SNTAB ELEMENT FLAGS - DEFINES    00831003
                                       THE TYPE OF PARM              */ 00833003
        3 SNTPOSIT BIT(1),          /* POSITIONAL ELEMENT            */ 00837003
        3 SNTKEY BIT(1),            /* KEYWORD ELEMENT               */ 00839003
        3 SNTKEYW BIT(1),           /* KEYWORD WITH VALUE ELEMENT    */ 00842003
        3 SNTLABEL BIT(1),          /* LABEL ELEMENT                 */ 00845003
        3 SNTNOSCN BIT(1),          /* VARIABLE NOT RESCANNABLE      */ 00848003
        3 SNTNAUTH BIT(1),          /* CONTROL VARIABLE CAN NOT BE      00851003
                                       SET BY THE USER               */ 00854003
        3 SNTEVAL BIT(1),           /* CONTROL VARIABLE REQUIRES        00857003
                                       IMMEDIATE EVALUATION          */ 00860003
        3 SNTLAST BIT(1),           /* DEFINES THE LAST ELEMENT IN      00863003
                                       THIS SNTAB                    */ 00866003
        3 SNTGLOB BIT(1),           /* VARIABLE IS A GLOBAL VAR      */ 00869003
        3 * BIT(7),                 /* RESERVED                      */ 00872003
       2 SNTLNG FIXED(15),          /* LENGTH OF THE SYMBOLIC           00875003
                                       PARAMETER NAME                */ 00878003
       2 SNTDATA CHAR(*);           /* NAME OF THE SYMBOLIC PARAMETER   00881003
                                                                     */ 00884003
 NPAGE;                                                                 00887003
 %VTABCHK:                                                              00891003
    IF IKJVTAB^=''                                                      00893003
        %THEN                                                           00897003
      %GOTO CVARCHK;                                                    00899003
    DCL                                                                 00903003
      SVTABPTR PTR(31);             /* CURRENT SVTAB ADDRESS         */ 00905003
                                                                        00907003
    /*****************************************************************/ 00910003
    /*                                                               */ 00913003
    /* SYMBOLIC VALUE TABLE                                          */ 00916003
    /*                                                               */ 00919003
    /*****************************************************************/ 00922003
                                                                        00925003
    DCL                                                                 00928003
      1 SVTAB BASED(SVTABPTR),      /* SVTAB TABLE HEADER            */ 00931003
       2 SVTABNXT PTR(31),          /* ADDRESS OF NEXT SVTAB         */ 00934003
       2 SVTABLNG FIXED(31),        /* LENGTH OF THIS SVTAB          */ 00937003
       2 SVTABUSE FIXED(31),        /* NUMBER OF BYTES IN THIS SVTAB    00941003
                                       THAT ARE IN USE               */ 00944003
       2 SVTABFRE FIXED(31),        /* NUMBER OF BYTES IN THIS SVTAB    00947003
                                       THAT ARE ASSIGNED (IN USE) BUT   00951003
                                       UNUSED                        */ 00953003
       2 SVTELFST CHAR(*);          /* FIRST SYMBOLIC VALUE ELEMENT  */ 00957003
                                                                        00959003
    /*****************************************************************/ 00961003
    /*                                                               */ 00964003
    /* SYMBOLIC VALUE TABLE ELEMENT                                  */ 00967003
    /*                                                               */ 00971003
    /*****************************************************************/ 00974003
                                                                        00977003
    %IF SVELBASE='' %THEN                                               00981003
      %SVELBASE='BASED(SNTVLPTR)';                                      00983003
    DCL                                                                 00987003
      1 SVTELEM SVELBASE,           /* SVTAB ELEMENT                 */ 00989003
       2 SVTLNG FIXED(15),          /* LENGTH OF THE SYMBOLIC           00991003
                                       PARMETER VALUE                */ 00994003
       2 SVTORIG FIXED(15),         /* ORIGIONAL LENGTH OF THIS         00997003
                                       ELEMENT                       */ 01001003
       2 SVTDATA CHAR(*);           /* VALUE OF THE SYMBOLIC            01004003
                                       PARAMETER                        01007003
                                                                     */ 01011003
 NPAGE;                                                                 01013003
 %CVARCHK:                                                              01017003
    IF IKJCVMAP^=''                                                     01019003
        %THEN                                                           01021003
      %GOTO EXECPHASE2CK;                                               01024003
                                                                        01027003
    DCL                                                                 01031003
    /*****************************************************************/ 01034003
    /*                                                               */ 01037003
    /* MAP OF EXEC COMMAND CONTROL VARIABLES IN THE FIRST SNTAB FIXED*/ 01041003
    /* AREA. CORRECT PROCESSING IS DEPENDENT UPON THE POSITIONS OF   */ 01041200
    /* THE VARIABLES IN THIS STRUCTURE. THE ORDER OF VARIABLES IN    */ 01041900
    /* THIS STRUCTURE MUST AGREE WITH THE NULLVARX TABLE. NOTE THAT  */ 01042600
    /* THE FIRST 10 VARIABLES ARE INITIALIZED AS REQUIRING IMMEDIATE */ 01043300
    /* EVALUATION (IN IKJCT433) AND THE FIRST 15 ARE INITIALIZED AS  */ 01044000
    /* BEING NOT AUTHORIZED (THAT IS, A USER MAY NOT SET THEM).      */ 01044700
    /*                                                               */ 01047003
    /*****************************************************************/ 01049003
                                                                        01051003
    %IF CVARBASE='' %THEN                                               01054003
      %CVARBASE='DEF(SNTELFST)';                                        01057003
      1 CVARMAP CVARBASE BDY(BYTE),                                     01061003
       2 CTIMEVAL PTR(31) BDY(BYTE),/* SYSTIME VALUE IS NULL         */ 01064003
       2 CTIMEFLG CHAR(2),          /* FLAG AREA                     */ 01067003