         MACRO                                                          01000020
&NAME    IKJEBEML  &MNUM,&RLEV2,&INS1,&INS2,&MF=                        02000020
         LCLC  &REG                                                     03000020
&REG     SETC  '1'                                                      04000020
         AIF   ('&MF(1)' EQ 'E').TAG1                                   05000020
&NAME    DS    0F                                                       06000020
         AIF   (N'&MNUM GT 0).TAG4                                      07000020
         MNOTE 4,'MESSAGE NUMBER MISSING'                               08000020
         AGO   .EXIT                                                    09000020
.TAG4    ANOP                                                           10000020
         DC    AL2(&MNUM)                                               11000020
         AIF   (N'&RLEV2 EQ 0).TAG6                                     12000020
         DC    AL2(&RLEV2) REL LEVEL 2 MESSAGE NUMBER                   13000020
         AGO   .TAG8                                                    14000020
.TAG6    ANOP                                                           15000020
         DC   AL2(0) NO LEVEL 2 MESSAGE                                 16000020
.TAG8    ANOP                                                           17000020
         AIF   (N'&INS1 EQ 0).TAG10                                     18000020
         DC    A(&INS1) PTR TO INSERTION, LEVEL 1                       19000020
         AGO   .TAG12                                                   20000020
.TAG10   ANOP                                                           21000020
         DC    A(0) NO LEVEL 1 INSERTION                                22000020
.TAG12   ANOP                                                           23000020
         AIF   (N'&INS2 EQ 0).TAG14                                     24000020
         DC    A(&INS2) PTR TO LEVEL 2 INSERTION                        25000020
         AGO   .EXIT                                                    26000020
.TAG14   ANOP                                                           27000020
         DC    A(0) NO LEVEL 2 INSERTION                                28000020
         AGO   .EXIT                                                    29000020
.TAG1    ANOP                                                           30000020
&NAME    DS    0H                                                       30050020
         AIF   ('&MF(2)' EQ '(1)').TAG17                                31000020
         AIF   ('&MF(2)'(1,1) EQ '(').TAG15                             32000020
         LA    &REG,&MF(2) POINT TO LIST AREA                           33000020
         AGO   .TAG17                                                   34000020
.TAG15   ANOP                                                           35000020
         LR    &REG,&MF(2)                                              36000020
.TAG17   ANOP                                                           37000020
         AIF   (N'&MNUM EQ 0).TAG16                                     38000020
         AIF   ('&MNUM'(1,1) NE '(').TAG21                              39000020
         STH   &MNUM,0(0,&REG) STORE MESSAGE NUMBER                     40000020
         AGO   .TAG16                                                   41000020
.TAG21   ANOP                                                           42000020
         LA    0,&MNUM                                                  43000020
         STH   0,0(&REG) STORE MESSAGE NUMBER                           44000020
.TAG16   ANOP                                                           45000020
         AIF   (N'&RLEV2 EQ 0).TAG18                                    46000020
         AIF   ('&RLEV2'(1,1) NE '(').TAG23                             47000020
         STH   &RLEV2,2(0,&REG) STORE REL SECOND LEVEL NUMBER           48000020
         AGO   .TAG18                                                   49000020
.TAG23   ANOP                                                           50000020
         LA    0,&RLEV2                                                 51000020
         STH   0,2(&REG) STORE REL LEVEL 2 NUMBER                       52000020
.TAG18   ANOP                                                           53000020
         AIF   (N'&INS1 EQ 0).TAG20                                     54000020
         AIF   ('&INS1'(1,1) EQ '(').TAG30                              55000020
         LA    0,&INS1                                                  56000020
         ST    0,4(&REG) STORE PTR TO INSERTION, LEVEL 1                57000020
         AGO   .TAG20                                                   58000020
.TAG30   ANOP                                                           59000020
         ST    &INS1,4(,&REG) STORE PTR TO INSERTION, LEVEL 1           60000020
.TAG20   ANOP                                                           61000020
         AIF   (N'&INS2 EQ 0).TAG22                                     62000020
         AIF   ('&INS2'(1,1) EQ '(').TAG31                              63000020
         LA    0,&INS2                                                  64000020
         ST    0,8(&REG) STORE PTR TO INSERTION, LEVEL 2                65000020
         AGO   .TAG22                                                   66000020
.TAG31   ANOP                                                           67000020
         ST    &INS2,8(,&REG) STORE PTR TO INSERTION, LEVEL 2           68000020
.TAG22   ANOP                                                           69000020
         IKJEBESH (COMMREG),IKJEBEMS,PARAM=((COMMREG),(1)),MF=(E,(1))   70000020
.EXIT    ANOP                                                           71000020
         MEND                                                           72000020
