         MACRO                                                          03000020
&NAME    IKJEBEMG  &PTR,&INS,&TEXT                                      06000020
         LCLC  &GNAME                                                   09000020
&GNAME   SETC  '&SYSNDX'                                                12000020
         AIF   (N'&PTR NE 0).TAG1                                       15000020
&NAME    DC    A(0) POINTER TO SECOND INSERTION RECORD                  18000020
         AGO   .TAG2                                                    21000020
.TAG1    ANOP                                                           24000020
&NAME    DC    A(&PTR) POINTER TO SECOND INSERTION RECORD               27000020
.TAG2    ANOP                                                           30000020
         AIF (N'&INS NE 0).TAG4                                         33000020
         MNOTE 4,'INSERTION POINT NOT SPECIFIED'                        36000020
         AGO   .EXIT                                                    39000020
.TAG4    ANOP                                                           42000020
         DC    AL2(MXX&GNAME-*) LENGTH OF MESSAGE                       45000020
         DC    AL2(&INS) POINTER TO INSERTION POINT                     48000020
         AIF (N'&TEXT NE 0).TAG6                                        51000020
         MNOTE 4,'MESSAGE TEXT NOT PROVIDED'                            54000020
         AGO   .EXIT                                                    57000020
.TAG6    ANOP                                                           60000020
         DC    C&TEXT                                                   63000020
MXX&GNAME  EQU   *                                                      66000020
.EXIT    ANOP                                                           69000020
         MEND                                                           72000020
