         MACRO                                                          01000020
&NAME    INBLOCK &PATH=                                                 02000020
.*C073000                                                       SA56318 02000110
         GBLA  &IEDQZE(64)                                              03000020
         GBLB  &IEDQZA(64)                                              04000020
         GBLC  &IEDQZB,&IEDQZJ                                          05000020
         LCLB  &NOGO                                                    06000020
         SPACE                                                          07000020
         AIF   (&IEDQZA(9)).TSOMH                                S22029 07100022
         AGO   .SEQCHK                                           S22029 07200022
.TSOMH   MNOTE 12,'*** IED906 INBLOCK MACRO INVALID IN A TSO MH'        07300010
&NOGO    SETB  1                                                 S22029 07400022
.SEQCHK  ANOP                                                    S22029 07500022
         AIF   (&IEDQZA(5) OR &IEDQZA(10)).MN                           08000020
         AIF   (&IEDQZA(46)).PRM                                        09000020
.MN      MNOTE 12,'***  IHB070  SEQUENCE ERROR - MUST FOLLOW STARTMH MA*10000020
               CRO'                                                     11000020
&NOGO    SETB  1                                                        12000020
.PRM     AIF   ('&PATH' EQ '').GLOB                                     13000020
         AIF   ('&PATH(1)' NE '' AND '&PATH(2)' NE '').CHECK            14000020
.ERR     MNOTE 12,'***  IHB300 PATH OPERAND INVALID AS SPECIFIED'       15000000
         AGO   .MEND                                                    16000020
.CHECK   IEDQMASK &PATH(2),1                                            17000020
         AIF   (&IEDQZA(24)).ERR                                        18000020
         AIF   ('&PATH(2)' EQ '0' OR '&PATH(2)' EQ 'X''00''' OR '&PATH(*19000020
               2)' EQ 'X''0''' OR '&PATH(2)'(1,2) EQ 'XL').ERR          20000020
.GLOB    AIF   (&NOGO).MEND                                             21000020
         AIF   ('&NAME' EQ '').NON                                      22000020
&NAME    DS    0H                                                       23000020
.NON     ANOP                                                           24000020
&IEDQZA(1) SETB 1                                                       25000020
&IEDQZA(2) SETB 0                                                       26000020
&IEDQZA(3) SETB 0                                                       27000020
&IEDQZA(4) SETB 0                                                       28000020
&IEDQZA(5) SETB 0                                                       29000020
&IEDQZA(14) SETB 1                                                      30000020
&IEDQZB  DS    0H                                                       31000020
&IEDQZB  SETC  'IEDR'.'&SYSNDX'                                         32000020
         AIF   (NOT &IEDQZA(20)).NXT                                    33000020
         AIF   ('&IEDQZJ' EQ '').NXT                                    34000020
&IEDQZJ  DS    0H                                                       35000020
.NXT     AIF   ('&PATH' EQ '').MEND                                     36000020
         LOCOPT &PATH(1)                                                37000020
         AIF   (&IEDQZA(61)).MEND                                       38000020
         LTR   15,15 .                  OPTION FIELD FOUND              39000020
         BZ    &IEDQZB .                NO - GO TO NEXT DELIM           40000020
         TM    0(15),&PATH(2) .         PATH SWITCHES ON                41000020
         BZ    &IEDQZB .                NO - GO TO NEXT DELIM           42000020
         CNOP  0,4                                                      43000020
.MEND    SPACE 2                                                        44000020
&IEDQZJ  SETC  ''                                                       45000020
&IEDQZA(20) SETB 0                                                      46000020
&IEDQZA(22) SETB 0                                                      47000020
&IEDQZA(23) SETB 0                                                      48000020
&IEDQZA(35) SETB 0                                                      49000020
         MEND                                                           50000020
