         MACRO                                                          02000020
&NAME    INBUF &PATH=                                                   04000020
         GBLA  &IEDQZE(64)                                              06000020
         GBLB  &IEDQZA(64)                                              08000020
         GBLC  &IEDQZB,&IEDQZJ                                          10000020
         LCLB  &NOGO                                                    12000020
.*             VERSION DATED SEPTEMBER 17, 1970                         14000020
         SPACE                                                          16000020
&IEDQZA(6) SETB 1                                                       18000020
         AIF   (&IEDQZA(1) AND (NOT &IEDQZA(5) OR NOT &IEDQZA(10))).PRM 20000020
         MNOTE 12,'***  IHB070  SEQUENCE ERROR - MUST FOLLOW INHDR DELI*22000020
               MITER MACRO'                                             24000020
&NOGO    SETB  1                                                        26000020
.PRM     AIF   ('&PATH' EQ '').GLOB                                     28000020
         AIF   ('&PATH(1)' NE '' AND '&PATH(2)' NE '').CHECK            30000020
.ERR     MNOTE 12,'***  IHB300  PATH OPERAND INVALID AS SPECIFIED'      32000020
         AGO   .MEND                                                    34000020
.CHECK   IEDQMASK &PATH(2),1                                            36000020
         AIF   (&IEDQZA(24)).ERR                                        38000020
         AIF   ('&PATH(2)' EQ '0' OR '&PATH(2)' EQ 'X''00''' OR '&PATH(*38800020
               2)' EQ 'X''0''' OR '&PATH(2)'(1,2) EQ 'XL').ERR          39600020
.GLOB    AIF   (&NOGO).MEND                                             40400020
         AIF   ('&NAME' EQ '').NON                                      41200020
&NAME    DS    0H                                                       42000020
.NON     ANOP                                                           44000020
&IEDQZA(1) SETB 1                                                       46000020
&IEDQZA(2) SETB 0                                                       48000020
&IEDQZA(3) SETB 0                                                       50000020
&IEDQZA(4) SETB 0                                                       52000020
&IEDQZA(5) SETB 0                                                       54000020
&IEDQZB  DS    0H                                                       56000020
&IEDQZB  SETC  'IEDR'.'&SYSNDX'                                         58000020
         AIF   (NOT &IEDQZA(20)).NXT                                    60000020
         AIF   ('&IEDQZJ' EQ '').NXT                                    62000020
&IEDQZJ  DS    0H                                                       64000020
.NXT     AIF   ('&PATH' EQ '').MEND                                     66000020
         LOCOPT &PATH(1)                                                68000020
         AIF   (&IEDQZA(61)).MEND                                       70000020
         LTR   15,15 .                  OPTION FIELD FOUND              72000020
         BZ    &IEDQZB .                NO - GO TO NEXT DELIM           74000020
         TM    0(15),&PATH(2) .         PATH SWITCHES ON                76000020
         BZ    &IEDQZB .                NO - GO TO NEXT DELIM           78000020
         CNOP  0,4                                                      80000020
.MEND    SPACE 2                                                        82000020
&IEDQZJ  SETC  ''                                                       84000020
&IEDQZA(20) SETB 0                                                      88000020
         MEND                                                           90000020
