         MACRO                                                          03000020
&NAME    INEND                                                          06000020
.*A810000                                                       SA57357 06000110
         GBLB  &IEDQZA(64)                                              09000020
         GBLC  &IEDQZB                                                  12000020
.*             VERSION DATED SEPTEMBER 21, 1970                         16000020
         SPACE                                                          21000020
&IEDQZA(6) SETB 0                                                       24000020
         AIF   (&IEDQZA(1)).OK                                          27000020
         MNOTE 12,'***  IHB070  SEQUENCE ERROR - MUST FOLLOW INHDR MACR*30000020
               O'                                                       33000020
         AGO   .MEND                                                    36000020
.OK      AIF   ('&NAME' EQ '').NON                                      39000020
&NAME    DS    0H                                                       42000020
.NON     AIF   (&IEDQZA(10)).GLOB                                       45000020
         INMSG                                                          48000020
.GLOB    ANOP                                                           51000020
&IEDQZA(1) SETB 0                                                       54000020
&IEDQZA(2) SETB 0                                                       57000020
&IEDQZA(3) SETB 0                                                       60000020
&IEDQZA(4) SETB 0                                                       63000020
&IEDQZA(5) SETB 0                                                       66000020
&IEDQZB  DC    AL1(1),X'00'                                             69000020
&IEDQZB  SETC  'IEDR'.'&SYSNDX'                                         72000020
.MEND    SPACE 2                                                        75000020
&IEDQZA(18) SETB 0                                                      78000020
&IEDQZA(27) SETB 0                                                      81000020
&IEDQZA(48)  SETB 0                                             SA57357 82000010
         MEND                                                           84000020
