         MACRO                                                          02000020
&NAME    INITIATE &CHARS,&BLANK=YES                                     04000020
         GBLA  &IEDQZD                                                  06000020
         GBLB  &IEDQZA(64)                                              08000020
         GBLC  &IEDQZB                                                  10000020
         LCLB  &NOGO                                                    11000020
.*             VERSION DATED DECEMBER 23, 1970                          12000020
         SPACE                                                          14000020
         AIF   (NOT &IEDQZA(9)).TSOCHK                              TSO 16000020
         MNOTE 12,'***  IHB312  MUST FOLLOW STARTMH MACRO WITH TSOMH=NO*18000020
               '                                                        20000020
&NOGO    SETB  1                                                        22000020
.TSOCHK  AIF   (&IEDQZA(3)).CHECK                                       24000020
         MNOTE 12,'***  IHB070  SEQUENCE ERROR-MUST FOLLOW INHDR MACRO' 28000020
&NOGO    SETB  1                                                        30000020
.CHECK   AIF   ('&CHARS' EQ '').DOIT                                    32000020
         IEDQCHAR 8,&CHARS                                              34000020
         AIF   (&IEDQZA(24)).ERR                                        36000020
         AIF   (&IEDQZD LE 8).ORG                                       38000020
.ERR     MNOTE 12,'***  IHB300  CHARACTER OPERAND INVALID AS SPECIFIED' 40000020
&NOGO    SETB  1                                                        41000020
.ORG     AIF   (&NOGO).MEND                                             42000020
         AIF   ('&NAME' EQ '').NON                                      43000020
&NAME    DS    0H                                                       46000020
.NON     IEDQSCAN &IEDQZD,&CHARS,&BLANK                                 48000020
         AIF   (&IEDQZA(24)).MEND                                       50000020
         LTR   15,15                                                    52000020
         BNP   *+28                                                     55000020
.DOIT    AIF   (&NOGO).MEND                                             61000020
         AIF   ('&CHARS' NE '').GO                                      62000020
         AIF   ('&NAME' EQ '').GO                                       64000020
&NAME    DS    0H                                                       66000020
.GO      L     1,IEDADBUF .             GET BUFFER ADDRESS              68000020
         TM    20(1),X'01' .            IS THIS A TEXT BUFFER           68700020
         AIF   ('&CHARS' NE '').HI                                      69400020
         BO    *+12 .                   YES, DON'T SET BIT              70100020
         AGO   .LOAD                                                    70800020
.HI      BO    *+16 .                   YES, DON'T SET BIT              71500020
         STH   15,24(,1) .              UPDATE SCAN POINTER             72200020
.LOAD    L     1,12(,1) .               GET LCB ADDRESS                 72900020
         OI    70(1),X'10' .            SET ON INITIATE BIT             74000020
.MEND    SPACE 2                                                        76000020
         MEND                                                           78000020
