         MACRO                                                          01000020
&NAME    INMSG &PATH=                                                   02000020
         GBLA  &IEDQZE(64)                                              03000020
         GBLB  &IEDQZA(64),&IEDQRN(8)                         @YM07267  04000010
         GBLC  &IEDQZB,&IEDQZJ                                          05000020
         LCLB  &NOGO                                                    06000020
.*             VERSION DATED OCTOBER 22,1976                            07000010
         SPACE                                                          08000020
&IEDQZA(6) SETB 1                                                       09000020
&IEDQRN(5) SETB 0                 RESET MSGGEN/IEDRESP FLAG    @YM07267 09500010
        AIF    (&IEDQZA(1)).OK                                          10000020
         MNOTE 12,'***  IHB070  SEQUENCE ERROR - INCOMING GROUP MUST PR*11000020
               ECEDE OUTGOING GROUP AND FOLLOW STARTMH AND INHDR MACRO' 12000020
&NOGO    SETB  1                                                        13000020
.OK      AIF   ('&PATH' EQ '').CHK                                      14000020
         AIF   ('&PATH(1)' EQ '' OR '&PATH(2)' EQ '').ERR               14700020
         AIF   ('&PATH(2)' EQ '0' OR '&PATH(2)' EQ 'X''0''' OR '&PATH(2*15400020
               )' EQ 'X''00''' OR '&PATH(2)'(1,2) EQ 'XL').ERR          16100020
         IEDQMASK &PATH(2),1                                            17000020
         AIF   (NOT &IEDQZA(24)).CHK                                    18000020
.ERR     MNOTE 12,'***  IHB300  PATH OPERAND INVALID AS SPECIFIED'      19000020
&NOGO    SETB  1                                                        20000020
.CHK     AIF   (&NOGO).MEND                                             21000020
         AIF   (NOT &IEDQZA(27)).BITS                                   22000020
         DC    X'0100'                                                  23000020
.BITS    AIF   ('&NAME' EQ '').ZJ                                       25000020
&NAME    DS    0H                                                       26000020
.ZJ      AIF   (NOT &IEDQZA(20) OR '&IEDQZJ' EQ '').NON                 27000020
&IEDQZJ  DS    0H                                                       29000020
.NON     ANOP                                                           30000020
&IEDQZA(1) SETB 1                                                       31000020
&IEDQZA(2) SETB 0                                                       32000020
&IEDQZA(3) SETB 0                                                       33000020
&IEDQZA(4) SETB 0                                                       34000020
&IEDQZB  DS    0H                                                       36000020
&IEDQZB  SETC  'IEDR'.'&SYSNDX'                                         37000020
         AIF   ('&PATH' EQ '').TRANS                                    38000020
&IEDQZA(5) SETB 0                                              @YM06984 38500010
         LOCOPT &PATH(1)                                                39000020
         AIF   (&IEDQZA(61)).MEND                                       40000020
         LTR   15,15 .                  OPFIELD FOUND                   41000020
         BZ    &IEDQZB .                NO - GO TO NEXT DELIM           42000020
         TM    0(15),&PATH(2) .         PATH SWITCHES ON                43000020
         BZ    &IEDQZB .                NO - GO TO NEXT DELIM           44000020
.TRANS   CNOP  0,4                                                      45000020
&IEDQZA(5) SETB 1                                              @YM06984 45500010
         AIF   ('&PATH' NE '').BAL                                      46000020
&IEDQZA(10) SETB 1                                                      47000020
.BAL     L     15,IEDUI .               INMSG/OUTMSG ROUTINE            48000020
         BALR  1,15                                                     49000020
         DC    AL1(&IEDQZE(33)),AL1(2)                                  50000020
.MEND    SPACE 2                                                        51000020
&IEDQZJ  SETC  ''                                                       52000020
&IEDQZA(6) SETB 0                                                       53000020
&IEDQZA(18) SETB 0                                                      54000020
&IEDQZA(20) SETB 0                                                      55000020
&IEDQZA(27) SETB 1                                                      57000020
         MEND                                                           58000020
