         MACRO                                                          00050003
&NAME    INN3886 &IDCB,&IFRID,&IMF                                      00100003
.*  FUNCTION - GENERATE THE LIST AND EXECUTE CODE FOR A SETDEV WITH     00200003
.*             DEVT OF 3886                                             00250003
         LCLC  &MFADDR                                                  00300003
         AIF   ('&IMF(1)' EQ 'E').EXECFM   TST FOR EXECUTE FORM         00350003
.*             GENERATE  LIST FORM OF MACRO                             00400003
          AIF   ('&IDCB' EQ '').NODCB      TST IF DCB SPECIFIED         00450003
         AIF   ('&IDCB'(1,1) NE '(').DCBOK  TST FOR VALID DCB W MF=L    00500003
.*             ISSUE MNOTE FOR INVALID DCB SPECIFICATION WITH MF=1      00550003
         IHBERMAC 069                                                   00600003
         MEXIT                                                          00650003
.DCBOK   ANOP                                                           00700003
&NAME    DC    A(&IDCB)            DCB ADDRESS                          00750003
         AGO   .FRIDENT                                                 00800003
.NODCB   ANOP                                                           00850003
&NAME    DC    A(0)                DCB ADDRESS                          00900003
.FRIDENT ANOP                                                           00950003
         AIF    ('&IFRID' NE '').GFRNO   IF NO FR SPEC GEN BLANKS       01000003
         DC     CL4' '            FORMAT RECORD IDENTIFER               01050003
         AGO    .GFLGS                                                  01100003
.GFRNO   ANOP                                                           01150003
         DC    CL4'&IFRID'          FORMAT RECORD IDENTIFER             01200003
.GFLGS   ANOP                                                           01250003
         DC    X'FF020000'    SETDEV FLAGS                              01300003
         MEXIT                                                          01350003
.*             GENERATE  EXECUTE FORM OF MACRO                          01400003
.EXECFM  ANOP                                                           01450003
         AIF   ('&NAME' EQ '').NONAME    TEST IF SETDEV HAS SEQ SYMBOLS 01500003
&NAME    EQU   *                                                        01550003
.NONAME  ANOP                                                           01600003
&MFADDR  SETC  '&IMF(2)'                                                01650003
         AIF   ('&MFADDR' EQ '(1)').PROCDCB  IF R1 ADDR PARM LST GO ON  01700003
         AIF   ('&MFADDR'(1,1) EQ '(').GENLR   TST IF PARM LST IN REG   01750003
         LA    1,&IMF(2)            SET POINTER TO PARM LIST            01800003
         AGO   .PROCDCB                                                 01850003
.GENLR   ANOP                                                           01900003
         LR    1,&IMF(2)       SET POINTER TO PARM LIST                 01950003
.PROCDCB AIF   ('&IDCB' EQ '').MVFRID  TEST IF DCB SPEC                 02000003
         AIF   ('&IDCB'(1,1) EQ '(').DCBIREG TEST IF DCB ADR IN REG     02050003
         LA    0,&IDCB                  GET ADDR OF DCB                 02100003
         ST    0,0(1,0)                 STORE DCB ADDR IN PARM LIST     02150003
         AGO   .MVFRID                  GO MOVE FRID PARAMETER          02200003
.DCBIREG ANOP                                                           02250003
         ST    &IDCB,0(1,0)             STORE DCB ADDR IN PARM LIST     02300003
.MVFRID  AIF   ('&IFRID' EQ '').EXDONE   TEST IF FRID SPEC              02350003
         B     *+10                     BRANCH AROUND CONSTANT          02400003
         DC    CL4'&IFRID'              FORMAT RECORD ID                02450003
         DC    X'FF02'                                                  02500003
         MVC   4(6,1),*-6               MOVE FRID INTO PARMLIST         02550003
.EXDONE  ANOP                                                           02600003
         MEND                                                           02650003
