         MACRO                                                          00900020
&NAME    INVLIST &PARM,&ORDER=,&EOT=,&CPUID=0,&MASTER=NO,&AUTO=YES      01800082
.*                                                             @OY22597 01850082
         GBLA  &IEDQAR(64)                                              02700020
         GBLB  &IEDQZA(64)                                              03600020
         GBLC  &IEDQSV(8)                                               04000005
         LCLA  &L(200),&A,&B,&W,&H,&C                                   04500020
         LCLC  &V,&S(10)                                                05400020
         LCLB  &NO,&MT                                           S99244 05700022
.*  CHANGE ACTIVITY AS FOLLOWS                                          05800005
.******************* MICROFICHE FLAGS *********************** SUPT CODE 05900005
.*A549000                                                        S99244 06000005
.*C018000,063000,168000-174000,189000,207000,270000,594000       S99244 06000105
.*A 057000,072000,252000                                        SA55936 06000205
.*C243000                                                       SA55936 06300205
.*C180000                                                      @OY11500 06300358
.*C018000,189000                                               @OY14062 06390300
.*A585000,591000                                               @OY15062 06480300
.*C018000,174000                                               @OY22597 06480482
&IEDQSV(4) SETC '&SYSECT'                                               06600205
         SPACE 2                                                        07200020
         AIF   (&IEDQZA(33)).Z                                          08100020
         AIF   ('&NAME' NE '').C0                                       09000020
         MNOTE 12,'*** IHB076 MACRO NAME FIELD BLANK- NAME REQUIRED'    09900020
&NO      SETB  1                                                        10800020
.C0      AIF   (&IEDQAR(1) NE 0).C0A                                    11700020
         MNOTE 12,'*** IHB305 TTABLE MACRO NOT PREVIOUSLY SPECIFIED'    12600020
&NO      SETB  1                                                        13500020
.C0A     AIF   (K'&EOT EQ 2 OR '&EOT' EQ '').C0B                        14400020
         MNOTE 12,'*** IHB002 INVALID EOT OPERAND SPECIFIED- &EOT'      15300020
&NO      SETB  1                                                        16200020
.C0B     AIF   ('&MASTER' EQ 'NO' OR '&MASTER' EQ 'YES').C0C     S99244 16500022
         MNOTE 12,'*** IHB348 INVALID MASTER OPERAND - &MASTER'  S99244 16800022
&NO      SETB  1                                                 S99244 17100022
.C0C     ANOP                                                  @OY22597 17400082
         AIF   ('&PARM' EQ '').VAL                             @OY22597 17440082
         MNOTE 12,'*** IHB002 INVALID OPERAND SPECIFIED - &PARM'        17480082
&NO      SETB  1                                               @OY22597 17520082
.VAL     ANOP                                                  @OY22597 17560082
         AIF   ('&ORDER' EQ '').C0D                            @OY22597 17600082
         AIF   ('&ORDER'(K'&ORDER-1,1) NE ',').C0D               S99244 17700022
.Z       AIF   (&NO).NDE                                       @OY11500 18000058
IEDQSCBC CSECT                                                          18400005
&NAME    INVLIST1 ORDER=&ORDER,EOT=&EOT,CPUID=&CPUID,MASTER=&MASTER,AUTX18900000
               O=&AUTO                                         @XM05817 19300000
         AGO   .ND                                                      19800005
.C0D     ANOP                                                    S99244 20700022
&A       SETA  N'&ORDER                                                 21600020
&H       SETA  &A                                                       22500020
         AIF   (&A NE 0).C1                                             23400020
         AIF   (&NO).NDE                                                23800005
IEDQSCBC CSECT                                                          24300005
&NAME    DC    A(0)                     OUTPUT ONLY LINE        SA55936 25200005
         DC    A(&CPUID)                                                26100020
.ND      ANOP                                                    S99244 27000022
&IEDQSV(4) CSECT                                                        27300005
.NDE     ANOP                                                           27600005
         MEXIT                                                          27900020
.C1      AIF   (&W GE K'&ORDER(1)).E1                                   28800020
&W       SETA  &W+1                                                     29700020
         AIF   ('&ORDER(1)'(&W,1) NE '+' AND '&ORDER(1)'(&W,1) NE '-').*30600020
               C1                                                       31500020
&W       SETA  K'&ORDER(1)-&W                                           32400020
.C2      AIF   ('&ORDER(&A)' EQ '').E2                                  33300020
.C3      AIF   (&L(&A) GE K'&ORDER(&A) OR &L(&A) GT 8).E3               34200020
&L(&A)   SETA  &L(&A)+1                                                 35100020
         AIF   ('&ORDER(&A)'(&L(&A),1) EQ '+').C4                       36000020
         AIF   ('&ORDER(&A)'(&L(&A),1) NE '-').C3                       36900020
&B       SETA  &B+1                                                     37800020
.C4      AIF   (&L(&A) EQ 1).E3                                         38700020
         AIF   (K'&ORDER(&A)-&L(&A) EQ &W).C6                           39600020
&NO      SETB  1                                                        40500020
         MNOTE 12,'*** IHB307 INCONSISTENT LENGTH FOR &ORDER(&A)'       41400020
.C6      ANOP                                                           42300020
&A       SETA  &A-1                                                     43200020
         AIF   (&A GT 0).C2                                             44100020
         AIF   (&NO).ND                                                 45000020
IEDQSCBC CSECT                                                          45400005
         AIF   ((N'&ORDER/2)*2 EQ N'&ORDER).CNOP                        45900020
&A       SETA  2                                                        46800020
.CNOP    CNOP  &A,4                                                     47700020
&A       SETA  &H                                                       48600020
&C       SETA  82-&IEDQAR(1)                                            49500020
.L1      ANOP                                                           50400020
&V       SETC  '&ORDER(&A)'(1,&L(&A)-1)                                 51300020
         DC    AL2((&V-IEDQTNT-&C)/&IEDQAR(1))                          52200020
&A       SETA  &A-1                                                     53100020
         AIF   (&A GT 0).L1                                             54000020
&NO      SETB  ('&EOT' NE '')                                           54900020
&MT      SETB  ('&MASTER' EQ 'YES')                              S99244 55300022
&A       SETA  (&W+3)/2                                                 55800020
         AIF   (&W NE 0).AOK                                            56700020
&A       SETA  2                                                        57600020
.AOK     ANOP                                                           58500020
         AIF   ('&AUTO' EQ 'YES').AUTO                         @OY14062 58800000
&NAME    DC    AL1(&H),AL1(&H-&B),AL1(&A),B'&NO.0&MT.00000'      S99244 59100022
         AGO   .NOAUTO                                         @OY14062 59200000
.AUTO    ANOP                                                  @OY14062 59300000
&NAME    DC    AL1(&H),AL1(&H-&B),AL1(&A),B'&NO.0&MT.00001'    @OY14062 59400000
.NOAUTO  ANOP                                                  @OY14062 59500000
         DC    A(&CPUID)                                         S99244 59700022
&NO      SETB  0                                                        60300020
&V       SETC  '-'                                                      61200020
.LX      ANOP                                                           62100020
&A       SETA  1                                                        63000020
.L2      AIF   (&L(&A) EQ 0).L3                                         63900020
         AIF   ('&ORDER(&A)'(&L(&A),1) EQ '&V'(1,1)).L3                 64800020
&C       SETA  0                                                        65700020
.LOOP    AIF   (K'&ORDER(&A) EQ &L(&A)).LPEND                           66600020
&S((&C/8)+1)  SETC  '&ORDER(&A)'(&L(&A)+&C+1,8)                         67500020
&C       SETA  &C+8                                                     68400020
         AIF   (&W GT &C).LOOP                                          69300020
.LPEND   AIF   (K'&ORDER(&A)-&L(&A) NE 0).KOK                           70200020
         DC    X'DF'                                                    71100020
         AGO   .IND                                                     72000020
.KOK     ANOP                                                           72300020
&C       SETA  (&W+1)/2                                                 72600020
        DC   XL&C'&S(1)&S(2)&S(3)&S(4)&S(5)&S(6)&S(7)&S(8)&S(9)&S(10)'  72900020
.IND     DC    AL1(&A) .                INDEX                           73200020
.L3      ANOP                                                           73800020
&A       SETA  &A+1                                                     74700020
         AIF   (&A LE &H).L2                                            75600020
         AIF   (&NO).L6                                                 76500020
         AIF   ('&EOT' EQ '').FE                                        77400020
         DC    XL1'&EOT'                                                78300020
.FE      DC    X'FE'                                                    79200020
         AIF   (&B EQ 0).ND                                             80100020
&NO      SETB  1                                                        81000020
&V       SETC  '+'                                                      81900020
         AGO   .LX                                                      82800020
.L6      AIF   (&B LE 0 OR &A GT &H).ND                                 83700020
&B       SETA  &B-1                                                     84600020
         AGO   .L2                                                      85500020
.E3      MNOTE 12,'*** IHB002 INVALID ORDER OPERAND &A SPECIFIED -     *86400020
                        &ORDER(&A)'                                     87300020
&NO      SETB  1                                                        88200020
         AGO   .C6                                                      89100020
.E2      MNOTE 12,'*** IHB001 ORDER OPERAND &A REQ''D- NOT SPECIFIED'   90000020
&NO      SETB  1                                                        90900020
         AGO   .C6                                                      91800020
.E1      MNOTE 12,'*** IHB002 INVALID ORDER OPERAND 1 SPECIFIED -      *92700020
                       &ORDER(1)'                                       93600020
         MEND                                                           94500020
