         MACRO                                                          00050002
&NAME    IOSGEN &FUNC,&TABLE=,&UCB=,&REG=,&VAR=,&LINKR=                 00100002
         GBLB  &IECIHDR                 HEADER SWITCH                   00150002
         GBLB  &IECIFLG,&IECITP         FIRST TIME SWITCH               00200002
         GBLB  &IECIMNT,&IECIDET        FIRST TIME SWITCH               00201002
         GBLB  &IECILCH,&IECIRES        FIRST TIME SWITCH               00202002
         LCLC  &LABEL                   LABEL GENERATION                00210002
         LCLC  &FIELD                   UCB FIELD                       00250002
         LCLC  &BIT,&INDEX              UCB EQUATE NAME                 00300002
.*                                      OR BRANCH ENTRY (IECVGENA)      00350002
.*                                      OR TP ERRTAB                    00400002
         AIF   ('&IECIHDR' EQ '1').IOSG010                              00450002
&IECIHDR SETB  1                        SET HEADER SWITCH               00500002
*****************************************************************       00550002
*                                                               *       00600002
*             IOSGEN MACRO                                      *       00650002
*                                                               *       00700002
*        OS/VS2 RELEASE 2, 10/14/74, LEVEL=00                   *       00750003
*                                                               *       00800002
*        METHOD OF ACCESS                                       *       00850002
*              BAL - IOSGEN &FUNC,.....REQUIRED KEYWORDS        *       00900002
*              PLS - GEN REFS(....,....,MAPPING MACRO LABELS)   *       00950002
*                    (IOSGEN &FUNC,...REQUIRED KEYWORDS);       *       01000002
*                                                               *       01050002
*        THE MACRO FACILITIES OF IOSGEN ARE PROVIDED TO         *       01100002
*        SUPPORT FUNCTIONS WHICH REQUIRE A CHANGE TO OR         *       01150002
*        INFORMATION FROM THE RESOURCES WHICH GOVERN THE        *       01200002
*        CONTROL STRUCTURE OF THE I/O SUPERVISOR.  THESE        *       01250002
*        ARE NOT AN INTEGRAL PART OF IOS AND, THROUGH IOSGEN,   *       01300002
*        CAN REMAIN INDEPENDENT OF THE RESOURCE GOVERNING       *       01350002
*        STRUCTURE. IOSGEN IS A PRIVATE MACRO AVAILABLE         *       01400002
*        ONLY TO AUTHORIZED SYSTEM ROUTINES.                    *       01450002
*                                                               *       01500002
*****************************************************************       01550002
.IOSG010 ANOP                                                           01600002
         AIF   ('&FUNC' EQ 'DETECTOR').DET000                           01650002
         AIF   ('&FUNC' EQ 'DOM').DOM000                                01700002
         AIF   ('&FUNC' EQ 'LCH').LCH000                                01750002
         AIF   ('&FUNC' EQ 'MAP').MAP000                                01800002
         AIF   ('&FUNC' EQ 'MOUNT').MNT000                              01850002
         AIF   ('&FUNC' EQ 'PTHAVL').PTH000                             01900002
         AIF   ('&FUNC' EQ 'RESTART').RES000                            01950002
         AIF   ('&FUNC' EQ 'SIMINT').SIM000                             02000002
         AIF   ('&FUNC' EQ 'SWAP').SWP000                               02050002
         AIF   ('&FUNC' EQ 'TP').TP000                                  02100002
         AIF   ('&FUNC' EQ 'UCBFLG').FLG000                             02150002
         AIF   ('&FUNC' EQ 'UCBLOOK').UCB000                            02200002
         AIF   ('&FUNC' EQ 'VARY').VAR000                               02250002
         AIF   ('&FUNC' EQ 'SETVOID').SV000                    @Y30LPLC 02270003
         AGO   .IOSGEN3                                                 02300002
.*****     *****     *****     *****     *****     *****     *****      02350002
.*****      MAP      *****      MAP      *****      MAP      *****      02400002
.*****     *****     *****     *****     *****     *****     *****      02450002
.MAP000  ANOP                                                           02500002
*                                                                       02550064
*    THE MAP FUNCTION HAS BEEN REPLACED BY THE IOSMAP MACRO    @G64APLK 02580064
*                                                                       02610064
         AGO   .IOSGEN3                                                 02690064
.*****     *****     *****     *****     *****     *****     *****      02720064
.*****     PTHAVL    *****     PTHAVL    *****     PTHAVL    *****      02750064
.*****     *****     *****     *****     *****     *****     *****      02780064
.PTH000  ANOP                                                           02800064
*                                                                       02810064
*        THE PTHAVL FUNCTION HAS BEEN DELETED.                 @G64APLK 02820064
*                                                                       02856064
         AGO   .IOSGEN3                                        @ZA12429 02864064
.*****     *****     *****     *****     *****     *****     *****      02872064
.*****    UCBLOOK    *****    UCBLOOK    *****    UCBLOOK    *****      02880064
.*****     *****     *****     *****     *****     *****     *****      02888064
.UCB000  ANOP                                                           02896064
.*                                                                      02904064
.*       CSECT AUTHORIZATION                                            02912064
.*                                                                      02920064
         AIF   (('&SYSECT' EQ 'IQAALL00') OR                           X02928064
               ('&SYSECT' EQ 'IQAERR00')).UCBAUTH                       02936064
         AIF   ('&SYSECT' EQ 'IGC0005I').UCBAUTH                        02944064
         AIF   ('&SYSECT' EQ 'IGC0905I').UCBAUTH                        02952064
         AIF   ('&SYSECT' EQ 'IEEVDEV').UCBAUTH                         02960064
         AIF   ('&SYSECT' EQ 'IEEVPTH').UCBAUTH                         02968064
         AIF   ('&SYSECT' EQ 'IEAVNIP0').UCBAUTH                        02976064
         AIF   ('&SYSECT' EQ 'IEAVNIPM').UCBAUTH                        02984064
         AIF   ('&SYSECT' EQ 'WMMCCABE').UCBAUTH                        02992064
         AIF   ('&SYSECT' EQ 'IEEMPDM').UCBAUTH                         03000064
         AIF   ('&SYSECT' EQ 'IQASTK00').UCBAUTH                        03008064
         AIF   ('&SYSECT' EQ 'ISTINMAV').UCBAUTH                        03016064
         AIF   ('&SYSECT' EQ 'IEE3603D').UCBAUTH                        03024064
         AIF   ('&SYSECT' EQ 'IGC0012F').UCBAUTH               @ZUP1085 03032064
        AIF   ('&SYSECT' EQ 'ICBVMT00').UCBAUTH               @ZA12429  03040064
.*       AGO   .IOSGEN1                                        @ZA12429 03048064
.UCBAUTH ANOP                                                           03056064
         SPACE 2                                                        03100002
*****************************************************************       03150002
*                                                               *       03200002
* FUNCTION:                                                     *       03250002
*    UCBLOOK - LOCATES THE UNIT CONTROL BLOCK (UCB) ASSO-       *       03300064
*    CIATED WITH A DEVICE ADDRESS.                              *       03350064
*                                                               *       03400064
* MACRO CALL:                                                   *       03450064
*    LABEL  IOSGEN  UCBLOOK,UCB=(REG),REG=(REG)                 *       03500064
*                                                               *       03550064
*       PLS - GEN REFS(CVTILK1,CVTILK2,CVTIXAVL,CVTMAP,         *       03600064
*             IOCOMEX,CVTPTR,IOCOM,IOX,IOCUCBBM,IOXHICH)       @YM06032 03650064
*             (IOSGEN UCBLOOK,...KEYWORDS AS IN BAL);           *       03700064
*                                                               *       03900002
* INPUT:                                                        *       03950002
*    REGISTER 13 MUST CONTAIN THE ADDRESS OF A 16 WORD          *       04000002
*    SAVEAREA.                                                  *       04050002
*                                                               *       04100002
*    REGISTER 15 WILL BE USED AS A BASE REGISTER AND, AS        *       04150002
*    SUCH, USING AND DROP STATEMENTS ARE ISSUED.  IF THE        *       04200002
*    CALLING MODULE IS USING REGISTER 15 AS A BASE, IT MUST     *       04250002
*    REESTABLISH ADDRESSABILITY BY ISSUING ANOTHER USING        *       04300002
*    STATEMENT.                                                 *       04350002
*                                                               *       04400002
*    UCB=  MAY SPECIFY A GPR (SYMBOLIC OR ABSOLUTE), WHICH      *       04700064
*    IS TO CONTAIN THE ADDRESS OF THE UCB COMMON SEGMENT UPON   *       04710064
*    RETURN TO THE CALLER. IF OMITTED, REGISTER 7 IS ASSUMMED.  *       04720064
*                                                               *       04730064
*    REG=  MAY SPECIFY A GPR (SYMBOLIC OR ABSOLUTE) WHICH       *       04740064
*    WILL CONTAIN THE HEXIDECIMAL DEVICE ADDRESS; RIGHT         *       04750064
*    JUSTIFIED.  IF THIS PARAMETER IS OMITTED, REGISTER 6 IS    *       04760064
*    ASSUMED.                                                   *       04770064
*                                                               *       04850002
*    LABEL - OPTIONAL LABEL.                                    *       04900064
*                                                               *       04950064
* OUTPUT:                                                       *       05000064
*                                                               *       05050064
*    UCB=  CONTAINS THE ADDRESS OF THE UCB.                     *       05080064
*                                                               *       05110064
*    REGISTER 15 WILL CONTAIN ONE OF THE FOLLOWING RETURN CODES:*       05140064
*         00=  UCB ADDRESS HAS BEEN FOUND                       *       05170064
*         04=  DEVICE ADDRESS WAS INVALID                       *       05200064
*                                                               *       05300064
* ATTRIBUTES:                                                   *       05350064
*    THIS FUNCTION IS EXPANDED AS RE-ENTRANT, IN-LINE CODE.     *       05400064
*                                                               *       07000002
* OTHER:                                                        *       07050002
*    THE EXPANSION OF THIS FUNCTION IS DEPENDENT ON THE         *       07100002
*    SPECIFICATION OF THE FOLLOWING MAPPING MACROS              *       07150002
*    IN THE CALLING CSECT ASSEMBLY:                             *       07200002
*         CVT   DSECT=YES                                       *       07250064
*         IECDIOCM                                              *       07300064
*         IECDIOCX                                            @YM03330* 07350064
*                                                               *       07650002
*    LOCKS ARE NOT REQUIRED BY THIS FUNCTION.                   *       07700002
*                                                               *       07750002
*****************************************************************       07800002
         SPACE 2                                                        07850002
*****************************************************************       07900002
*                                                               *       07950002
*        REGISTER DEFINITIONS                                   *       08000002
*                                                               *       08050002
*****************************************************************       08100002
         SPACE                                                          08150002
IECIUZRO EQU   0                   RESERVED                             08200064
*        EQU   1                   RESERVED                             08250064
IECIUWK2 EQU   2                   EVEN WORK REG                        08300064
IECIUWK3 EQU   3                   ODD WORK REG                         08350064
IECIUCVT EQU   4                   CVT PTR                              08400064
IECIULST EQU   5                   CHAN AND UCB LIST PTR                08450064
IECIUEVN EQU   6                   EVEN WORK REG                        08500064
IECIUODD EQU   7                   ODD WORK REG                         08550064
IECIUNDX EQU   8                   TABLE INDEX REG                      08600064
*        EQU   9                   RESERVED                             08650064
*        EQU   10                  RESERVED                             08700064
*        EQU   11                  RESERVED                             08750064
*        EQU   12                  RESERVED                             08800064
IECIUSAV EQU   13                  SAVE AREA PTR                        08850064
*        EQU   14                  RESERVED                             08900064
IECIUBAS EQU   15                  BASE REG                             08950064
         SPACE                                                          09000064
*****************************************************************       09050064
*                                                               *       09100064
*        MISCELLANEOUS EQUATES                                  *       09150064
*                                                               *       09200064
*****************************************************************       09250064
         SPACE                                                          09300064
IECIURC4 EQU   4                   RETURN CODE OF 4                     09350064
IECIUMBM EQU   128                 MOVING BIT MASK                      09400064
IECIUB16 EQU   16                  NO. OF BITS FOR SHIFTS      @YM06032 09450064
IECIUDNM EQU   X'0F'               DEVICE NUMBER MASK                   09500064
         AIF   ('&UCB' NE '').UCB010                                    09550064
IECIUUCB EQU   28                  OFFSET IN SAVE AREA FOR REG 7        09600064
*                                  *WHICH WILL CONTAIN ADDR OF          09650064
*                                  *VALID UCB                           09700064
.UCB010  ANOP                                                           09750064
IECIURTC EQU   60                  OFFSET FOR REG 15 IN SAVEAREA        09800064
*                                  *WHICH WILL CONTAIN                  09850064
*                                  *RETURN CODE                         09900064
         SPACE                                                          12050002
*****************************************************************       12100002
*                                                               *       12150002
*        ESTABLISH ADDRESSABILITY                               *       12200002
*                                                               *       12250002
*****************************************************************       12300002
         SPACE                                                          12350002
&NAME    STM   IECIUZRO,IECIUBAS,0(IECIUSAV)  SAVE REGS                 12400064
         BALR  IECIUBAS,0          EST ADDRESSABILITY                   12450064
         USING *,IECIUBAS                                               12500064
         SPACE                                                          12550064
         AIF   ('&REG' EQ '').UCB030                                    12600064
         LR    IECIUEVN,&REG(1)    GET DEVICE ADDR FROM CALLER          12650064
.UCB030  ANOP                                                           12700064
         SPACE                                                          12750064
****************************************************************        12800064
*                                                              *        12850064
*        VALIDATE UCB DEVICE ADDRESS                           *        12900064
*                                                              *        12950064
****************************************************************        13000064
         SPACE                                                          13050064
         SR    IECIUODD,IECIUODD   ZERO WORK REGISTER          @YM06032 13100064
         SRDL  IECIUEVN,IECIUB16   ISOLATE DEVICE ADDRESS      @YM06032 13150064
         LTR   IECIUEVN,IECIUEVN   ANYTHING IN HI BYTES-INVALID@YM06032 13200064
         BNZ   IECIU070            YES, TAKE ERROR EXIT        @YM06032 13250064
         SPACE                                                          13300064
         SLDL  IECIUEVN,IECIUB16   RESTORE DEVICE ADDRESS      @YM06032 13350064
         SPACE                                                          13400064
         L     IECIUCVT,CVTPTR(0,0)  GET CVT PTR                        13450064
         L     IECIULST,CVTIXAVL-CVTMAP(0,IECIUCVT)  GET IOCOM PTR      13500064
         L     IECIUWK2,IOCOMEX-IOCOM(0,IECIULST) GET IOX PTR           13550064
         SPACE                                                          13600064
         CLM   IECIUEVN,2,IOXHICH-IOX(IECIUWK2) IS CHAN VALID? @YM06032 13650064
         BH    IECIU070            NO, TAKE ERROR EXIT                  13700064
         SPACE                                                          13750064
         LR    IECIUWK2,IECIUEVN   COPY DEVICE ADDR                     13800064
         L     IECIULST,IOCUCBBM-IOCOM(0,IECIULST) GET UCB              13850064
*                                  *BIT MASK TABLE ADDR                 13900064
         SRDL  IECIUWK2,3(0)       CREATE TABLE AND BIT INDICES         13950064
         SRL   IECIUWK3,29(0)      ALIGN BIT INDEX                      14000064
         IC    IECIUWK2,0(IECIUWK2,IECIULST) GET BYTE                   14050064
*                                  *WITH DEVICE BIT                     14100064
         LA    IECIULST,IECIUMBM(0,0) GET MOVING BIT MASK               14150064
         SRL   IECIULST,0(IECIUWK3) CREATE DEVICE MASK                  14200064
         SPACE                                                          14250064
         NR    IECIUWK2,IECIULST   AND OUT ALL BUT DEVICE BIT           14300064
         BZ    IECIU070            INVALID DEVICE ADDRESS               14350064
         SPACE                                                          14400064
*****************************************************************       14450064
*                                                               *       14500064
*        ISOLATE DEVICE NUMBER, CHANNEL ADDRESS AND             *       14550064
*              CONTROL UNIT ADDRESS                             *       14600064
*                                                               *       14650064
*****************************************************************       14700064
         SPACE                                                          14750064
         LA    IECIUNDX,IECIUDNM(0,0)  GET DEVICE NUMBER MASK           14800064
         NR    IECIUNDX,IECIUEVN   ISOLATE DEVICE NUMBER                14850064
         SRDL  IECIUEVN,8(0)       SEPARATE CHANNEL AND                 14900064
*                                  *CONTROL UNIT ADDRESSES              14950064
*                                  *IN EVEN/ODD REGS                    15000064
         SRL   IECIUODD,28(0)      ISOLATE CONTROL UNIT                 15050064
         SPACE                                                          15100064
*****************************************************************       15150064
*                                                               *       15200064
*        GO TO CHANNEL TABLE AND CALCULATE CONTROL UNIT INDEX   *       15250064
*        CALCULATE UCB TABLE INDEX AND OBTAIN UCB TABLE PTR     *       15300064
*                                                               *       15350064
*****************************************************************       15400064
         SPACE                                                          15450064
         L     IECIULST,CVTILK1-CVTMAP(0,IECIUCVT)  GET CHANNEL         15500064
*                                  *TABLE PTR                           15550064
         IC    IECIUEVN,0(IECIUEVN,IECIULST)  GET CHAN INDEX            15600064
         SPACE                                                          15650064
         ALR   IECIUEVN,IECIUODD   ADD CHAN INDEX TO CU ADDR   @ZA08721 15700064
         SPACE                                                          15750064
         ALR   IECIUEVN,IECIUEVN   GET 2 * THIS VALUE          @ZA08721 15800064
*                                  *TO GET CONTROL UNIT INDEX           15850064
         AH    IECIUNDX,0(IECIUEVN,IECIULST) ADD CU INDEX TO            15900064
*                                  *CU NO.                              15950064
         SPACE                                                          16000064
         ALR   IECIUNDX,IECIUNDX   DOUBLE CU INDEX                      16050064
*                                  *TO GET UCB PTR INDEX                16100064
         L     IECIULST,CVTILK2-CVTMAP(0,IECIUCVT)  GET DEVICE          16150064
*                                  *LIST PTR--START OF LIST             16200064
         LH    IECIUODD,0(IECIUNDX,IECIULST)  GET UCB PTR               16250064
         N     IECIUODD,IECIUMSK   AND OFF ANY PROPAGATED BITS @Z30AALB 16300064
         SPACE                                                          16350064
*****************************************************************       16400064
*                                                               *       16450064
*        SET RETURN CODE EQUAL TO ZERO, AND SET UCB ADDRESS     *       16500064
*                                                               *       16550064
*****************************************************************       16600064
         SPACE                                                          16650064
         SLR   IECIUNDX,IECIUNDX   SET RETURN CODE =0                   16700064
         ST    IECIUNDX,IECIURTC(0,IECIUSAV)  STORE RETURN CODE         16750064
*                                  *IN REG 15 REG SAVE                  16800064
         AIF   ('&UCB' EQ '').UCB040                                    16850064
         LA    IECIUNDX,&UCB(1).(0,0)   GET REG VALUE                   16900064
         SLL   IECIUNDX,2(0)  REG VALUE * 4 = INDEX                     16950064
         ST    IECIUODD,0(IECIUNDX,IECIUSAV)  SET UCB ADDR              17000064
         AGO   .UCB050                                                  17050064
.UCB040  ANOP                                                           17100064
         ST    IECIUODD,IECIUUCB(0,IECIUSAV) SET UCB ADDR               17150064
.UCB050  ANOP                                                           17200064
         B     IECIUXIT            GO RESTORE REGS                      17250064
         SPACE                                                          17300064
*********************************************************************** 17350064
*                                                                     * 17400064
*        CONSTANT FOR UCBLOOK FUNCTION, LOCATED HERE TO ALLEVIATE AN  * 17450064
*        EXTRA BRANCH INSTRUCTION AROUND IT.                          * 17500064
*                                                                     * 17550064
*********************************************************************** 17600064
         SPACE                                                          17650064
         DS    0F                  PERFORMANCE BOUNDRY         @Z30AALB 17700064
IECIUMSK DC    X'0000FFFF'         AND MASK FOR UCB ADDRESS    @Z30AALB 17750064
         SPACE                                                          17800064
*****************************************************************       17850064
*                                                               *       17900064
*    INVALID DEVICE ADDRESS.  SET RETURN CODE EQUAL TO FOUR.    *       17950064
*                                                               *       18000064
*****************************************************************       18050064
         SPACE                                                          18100064
IECIU070 LA    IECIUNDX,IECIURC4(0,0)   SET RETURN CODE =4              18150064
         ST    IECIUNDX,IECIURTC(0,IECIUSAV)  STORE IN REG 15           18200064
*                                  *SAVE AREA                           18250064
         SPACE                                                          18300064
*****************************************************************       18350064
*                                                               *       18400064
*        RESTORE REGISTERS AND RETURN INLINE TO CALLER          *       18450064
*                                                               *       18500064
*****************************************************************       18550064
         SPACE                                                          18600064
IECIUXIT LM    IECIUZRO,IECIUBAS,0(IECIUSAV)  RESTORE REGS              18650064
*                                  *REG 15 LOADS RETURN CODE            18700064
         DROP  IECIUBAS                                                 18750064
         MEXIT                                                          18800064
.*****     *****     *****     *****     *****     *****     *****      18850064
.*****     UCBFLG    *****     UCBFLG    *****     UCBFLG    *****      18900064
.*****     *****     *****     *****     *****     *****     *****      18950064
.FLG000  ANOP                                                           19000064
.*                                                                      19050064
.*       CSECT AUTHORIZATION                                            19100064
.*                                                                      19150064
         AIF   ('&SYSECT' EQ 'IGE0025C').FLGAUTH                        19200064
         AIF   ('&SYSECT' EQ 'IEFAB494').FLGAUTH                        19250064
         AIF   ('&SYSECT' EQ 'IGC0005I').FLGAUTH                        19300064
         AIF   ('&SYSECT' EQ 'IGC0905I').FLGAUTH                        19350064
         AIF   ('&SYSECT' EQ 'IEC1052').FLGAUTH                         19400064
         AIF   ('&SYSECT' EQ 'IFG0193B').FLGAUTH                        19450064
         AIF   ('&SYSECT' EQ 'IFG0194J').FLGAUTH                        19500064
         AIF   ('&SYSECT' EQ 'IFG0202G').FLGAUTH                        19550064
         AIF   ('&SYSECT' EQ 'IEEVCPU').FLGAUTH                         19600064
         AIF   ('&SYSECT' EQ 'AMDSAUCB').FLGAUTH                        19650064
         AIF   ('&SYSECT' EQ 'IECVIOPM').FLGAUTH                        19700064
         AIF   ('&SYSECT' EQ 'WMMCCABE').FLGAUTH                        19750064
         AIF   ('&SYSECT' EQ 'IGG0290F').FLGAUTH                        19800064
         AIF   ('&SYSECT' EQ 'IGG0191A').FLGAUTH                        19850064
         AIF   ('&SYSECT' EQ 'IGE0100I').FLGAUTH                        19900064
         AIF   ('&SYSECT' EQ 'IGFTMC00').FLGAUTH               @Z40WPLP 19950064
         AIF   ('&SYSECT' EQ 'IGFTMCHK').FLGAUTH                        20000064
         AIF   ('&SYSECT' EQ 'IGFDM1').FLGAUTH                          20050064
         AIF   ('&SYSECT' EQ 'IGFDI1').FLGAUTH                          20100064
         AIF   ('&SYSECT' EQ 'ER3890').FLGAUTH                          20150064
         AIF   ('&SYSECT' EQ 'IGG019S1').FLGAUTH                        20200064
         AIF   ('&SYSECT' EQ 'IGG0197D').FLGAUTH                        20250064
         AIF   ('&SYSECT' EQ 'IGG019V5').FLGAUTH                        20300064
         AIF   ('&SYSECT' EQ 'IATSSDI').FLGAUTH JES3 CTC      @Z40WPLD  20350064
         AIF   ('&SYSECT' EQ 'IATMSIO').FLGAUTH                         20400064
         AIF   ('&SYSECT' EQ 'IATGRCT').FLGAUTH                @ZM34513 20450064
         AIF   ('&SYSECT' EQ 'IECTCATN').FLGAUTH                        20500064
         AIF   ('&SYSECT' EQ 'IGG019S3').FLGAUTH               @ED030LD 20550064
         AIF   ('&SYSECT' EQ 'IGE0001H').FLGAUTH               @Y30LB16 20600064
         AIF   ('&SYSECT' EQ 'IEE3103D').FLGAUTH                        20650064
         AIF   ('&SYSECT' EQ 'IEFAB488').FLGAUTH               @ZA06075 20700064
         AIF   ('&SYSECT' EQ 'IGFDE1').FLGAUTH                 @ZA12429 20750064
         AIF   ('&SYSECT' EQ 'IGE0002E').FLGAUTH               @ZA11845 20800064