         MACRO                                                          00050003
&NAME    IOSINTRP &UCB=1,&VAR=1,&BRANCH=YES                    @ZA16163 00100003
.*                                                                      00150003
.*       CSECT AUTHORIZATION                                            00200003
.*                                                                      00250003
         AIF   ('&SYSECT' EQ 'IEE3103D').SIMAUTH                        00300003
         AIF   ('&SYSECT' EQ 'IECVDAVV').SIMAUTH                        00350003
         AIF   ('&SYSECT' EQ 'IECTCATN').SIMAUTH                        00400003
         AIF   ('&SYSECT' EQ 'IGFDI1').SIMAUTH                          00450003
         AIF   ('&SYSECT' EQ 'IECVCINT').SIMAUTH               @Y30CQLE 00500003
         AIF   ('&SYSECT' EQ 'IGE0001H').SIMAUTH  MSS          @ZUP1085 00550003
         AIF   ('&SYSECT' EQ 'ICB2AEA').SIMAUTH  MSS           @ZUP1085 00600003
         AIF   ('&SYSECT' EQ 'IGE0003C').SIMAUTH  3838 SUPPORT @G29ANLO 00610003
         AIF   ('&SYSECT' EQ 'ICBTMSS0').SIMAUTH                        00620003
         AIF   ('&SYSECT' EQ 'IGTUJA').SIMAUTH                 @G29ANLO 00630003
.*       AGO   .IOSGEN1                                        @ZA12429 00650003
.SIMAUTH ANOP                                                           00700003
.*                                                                      00750003
.*       CHECK FOR MISSING PARAMETERS                                   00800003
.*                                                                      00850003
         AIF   ('&BRANCH' NE 'YES').IOSGEN3                             00856003
         AIF   (('&VAR' NE '1') AND ('&VAR' NE '2')).IOSGEN3            00871003
         SPACE 2                                                        00892003
*****************************************************************       01000003
*                                                               *       01050003
* FUNCTION:                                                     *       01100003
*        SIMULATES A DEVICE END OR CHANNEL AVAILABLE INTERRUPT. *       01150003
*                                                               *       01200003
* MACRO CALL:                                                   *       01250003
*    LABEL  IOSINTRP UCB=(REG),VER=1,BRANCH=YES                 *       01300003
*                                                               *       01350003
*         PLS - GEN REFS(CVTPTR,CVTIXAVL,CVTMAP,                *       01400003
*               IOCGENA,IOCOM)                                  *       01430003
*               (IOSINTRP KEYWORDS AS IN BAL);                  *       01500003
*                                                               *       01550003
* INPUT:                                                        *       01600003
*    UCB=  MAY SPECIFY A GPR (SYMBOLIC OR ABSOLUTE), WHICH      *       01650003
*    IS TO CONTAIN THE ADDRESS OF THE UCB COMMON SEGMENT(VAR=1) *       01700003
*    FOR WHICH THE INTERRUPT IS TO BE SIMULATED. THE DEFAULT IS *       01720003
*    UCB=(1).                                                   *       01740003
*                                                               *       01800003
*    VAR=2 GENERATE CHAN AVAILABLE INTERRUPT FOR CRH. FOR THIS  *       02050003
*    CASE UCB= SPECIFIES A REGISTER CONTAINING THE DEVICE       *       02060003
*    ADDRESS.                                                   *       02070003
*                                                               *       02100003
*    BRANCH=YES CAUSES A BALR TO MODULE IECVGENA.               *       02110003
*                                                               *       02130003
*    LABEL - OPTIONAL LABEL.                                    *       02150003
*                                                               *       02200003
* OUTPUT:                                                       *       02250003
*    A CHANNEL AVAILABLE INTERRUPT (ZERO STATUS) IS PRESENTED   *       02300003
*    IF THE UCB STATUS FLAGS INDICATE AN OUTSTANDING CHANNEL    *       02350003
*    END OR NO INTERRUPT EXPECTED.  IF THE DEVICE IS            *       02400003
*    WAITING FOR A DEVICE END (SOLICITED OR UNSOLICITED -       *       02450003
*    BUSY OR NOT READY), A DEVICE END INTERRUPT IS PRESENTED.   *       02500003
*                                                               *       02550003
* ATTRIBUTES:                                                   *       02600003
*    THIS FUNCTION IS EXPANDED AS RE-ENTRANT CODE.              *       02650003
*                                                               *       02700003
* OTHER:                                                        *       02750003
*    REGISTER 13 MUST CONTAIN THE ADDRESS OF A 16 WORD          *       02760003
*    SAVE AREA. THE REGISTERS ARE STORED 0 THRU 15 FROM         *       02770003
*    OFFSET 0.                                                  *       02780003
*                                                               *       02790003
*    THE EXPANSION OF THIS FUNCTION IS DEPENDENT ON THE         *       02800003
*    SPECIFICATION OF THE FOLLOWING MAPPING MACROS              *       02850003
*    IN THE CALLING CSECT ASSEMBLY:                             *       02900003
*         IECDIOCM                                              *       02990003
*         CVT DSECT=YES                                         *       03010003
*                                                               *       03050003
*    THIS ROUTINE MODIFIES THE I/O OLD PSW AND SERIALIZES       *       03100003
*    ITS OPERATION VIA STNSM INSTRUCTION THROUGHOUT             *       03150003
*    THE INTERRUPT PROCESS.  THE RESUME ADDRESS FIELD OF THE    *       03200003
*    I/O PSW IS SET TO THE LAST INSTRUCTION OF THE EXPANSION.   *       03250003
*                                                               *       03300003
*    LOCKS ARE NOT REQUIRED BY THIS FUNCTION.                   *       03350003
*                                                               *       03360003
*    THIS FUNCTION WAS FORMALLY PROVIDED BY IOSGEN SIMINT       *       03370003
*    AS AN INLINE EXPANSION.                                    *       03380003
*                                                               *       03400003
*****************************************************************       03450003
         SPACE 2                                                        03454003
&NAME    STM   0,15,0(13)       SAVE ALL REGISTERS             @ZA16163 03456003
         AIF   ('&VAR' EQ '2').SIMNEG                          @ZA16163 03457003
         LA    1,0(&UCB(1).)    BE SURE ADDR IS POSITIVE       @ZA16163 03458003
         AGO   .SIMCON                                         @ZA16163 03459003
.SIMNEG  LA    &UCB(1).,0(&UCB(1).) BE SURE ADDR IS POSITIVE   @ZA16163 03460003
         LNR   1,&UCB(1)  THEN FORCE NEGATIVE FOR DEVICE ADDR  @ZA16163 03461003
.SIMCON  ANOP                                                           03462003
         L     15,CVTPTR(0,0)   GET CVT ADDRESS                @ZA16163 03463003
         L     15,CVTIXAVL-CVTMAP(15) GET IOCOM ADDRESS        @ZA16163 03464003
         L     15,IOCGENA-IOCOM(15) GET IECVGENA ADDRESS       @ZA16163 03465003
         BAL   14,8(15)         CALL SIMULATE FUNCTION         @ZA16163 03466003
         LM    0,15,0(13)       RESTORE REGISTERS              @ZA16163 03467003
         SPACE                                                          03480003
         MEXIT                                                          03482003
.*                                                                      06950003
.IOSGEN3 MNOTE 8,'*** ERROR IN PARAMETER SET UP.'                       07000003
         MEND                                                           07050003
