* %/*                                                                   00050003
         MACRO                                                          00100003
&NAME    IOSLOOK &UCB=(7),&DEV=                                         00150003
         LCLC  &S                       VARIABLE FOR BRANCH LABEL       00200003
         GBLB  &LOOKFTS                 FIRST TIME SWITCH               00250003
.*                                                                      00300003
.*       CSECT AUTHORIZATION                                            00350003
.*                                                                      00400003
.*       AIF   (('&SYSECT' EQ 'IQAALL00') OR                            00450003
.*             ('&SYSECT' EQ 'IQAERR00')).UCBAUTH                       00500003
.*       AIF   ('&SYSECT' EQ 'IGC0005I').UCBAUTH                        00550003
.*       AIF   ('&SYSECT' EQ 'IGC0905I').UCBAUTH                        00600003
.*       AIF   ('&SYSECT' EQ 'IEEVDEV').UCBAUTH                         00650003
.*       AIF   ('&SYSECT' EQ 'IEEVPTH').UCBAUTH                         00700003
.*       AIF   ('&SYSECT' EQ 'IEAVNIP0').UCBAUTH                        00750003
.*       AIF   ('&SYSECT' EQ 'IEAVNIPM').UCBAUTH                        00800003
.*       AIF   ('&SYSECT' EQ 'IEEMPDM').UCBAUTH                         00850003
.*       AIF   ('&SYSECT' EQ 'IQASTK00').UCBAUTH                        00900003
.*       AIF   ('&SYSECT' EQ 'ISTINMAV').UCBAUTH                        00950003
.*       AIF   ('&SYSECT' EQ 'IEE3603D').UCBAUTH                        01000003
.*       AIF   ('&SYSECT' EQ 'IGC0012F').UCBAUTH                        01050003
.*       AIF   ('&SYSECT' EQ 'ICBVMT00').UCBAUTH                        01100003
.*                                                                      01150003
         AIF   ('&LOOKFTS' EQ '1').LOOK010                              01200003
&LOOKFTS SETB  1                                                        01250003
*****************************************************************       01300003
*                                                               *       01350003
*             IOSLOOK MACRO                                     *       01400003
*                                                               *       01450003
* OS/VS2                                                        *       01500003
*                                                               *       01550003
* FUNCTION:                                                     *       01600003
*    LOCATES THE UNIT CONTROL BLOCK (UCB) ASSOCIATED            *       01650003
*    WITH A DEVICE ADDRESS.                                     *       01700003
*                                                               *       01750003
* MACRO CALL:                                                   *       01800003
.*   ASSEMBLER:                                                 *       01850003
*       LABEL  IOSLOOK DEV=(REG),UCB=(REG)                      *       01900003
*                                                               *       01950003
.*    PLS:                                                      *       02000003
.*      ?LABEL: IOSLOOK  DEV(VARIABLE) UCB(VARIABLE)            *       02050003
.*                                                              *       02100003
* INPUT:                                                        *       02150003
*    USERS OF THIS MACRO MUST BE IN SUPERVISOR STATE            *       02200003
*                                                               *       02300003
*    REGISTER 13 MUST CONTAIN THE ADDRESS OF A 16 WORD SAVEAREA.*       02350003
*         NOTE: THIS IS NOT A STANDARD SAVEAREA, REGISTERS 0-15 *       02383303
*         WILL BE STORED AT THE ADDRESS PASSED IN REGISTER 13.  *       02416603
*                                                               *       02450003
*    LABEL - OPTIONAL LABEL.                                    *       02500003
*                                                               *       02550003
.*   ASSEMBLER:                                                 *       02600003
*    DEV=  MAY SPECIFY A GPR (SYMBOLIC OR ABSOLUTE) WHICH       *       02650003
*      WILL CONTAIN THE HEXIDECIMAL DEVICE ADDRESS; RIGHT       *       02700003
*      JUSTIFIED.  IF THIS PARAMETER IS OMITTED, REGISTER 6 IS  *       02750003
*      ASSUMED.                                                 *       02800003
*                                                               *       02850003
*    UCB=  MAY SPECIFY A GPR (SYMBOLIC OR ABSOLUTE) IN THE      *       02900003
*      RANGE OF 0 - 12, WHICH IS TO CONTAIN THE ADDRESS OF      *       02950003
*      UCB COMMON SEGMENT UPON RETURN TO THE CALLER.            *       03000003
*      IF THIS PARAMETER IS OMITTED, REGISTER 7 IS ASSUMED.     *       03050003
*                                                               *       03100003
.*   PLS:                                                       *       03150003
.*     DEV  - MAY SPECIFY A VARIABLE WHICH WILL CONTAIN THE     *       03200003
.*     HEXIDECIMAL DEVICE ADDRESS; RIGHT JUSTIFIED.  IF THIS    *       03250003
.*     PARAMETER IS OMITTED, REGISTER 6 IS ASSUMED.             *       03300003
.*                                                              *       03350003
.*     UCB  - MAY SPECIFY A VARIABLE WHICH IS TO CONTAIN THE    *       03400003
.*     THE ADDRESS OF THE UCB COMMON SEGMENT UPON RETURN TO     *       03450003
.*     THE CALLER. IF THIS PARAMETER IS OMITTED, REGISTER 1     *       03500003
.*     IS ASSUMED. REGISTER 15 SHOULD NOT BE USED.              *       03550003
.*                                                              *       03600003
* OUTPUT:                                                       *       03650003
*                                                               *       03700003
*    REGISTER 15 WILL CONTAIN ONE OF THE FOLLOWING RETURN CODES:*       03750003
*         00=  UCB ADDRESS HAS BEEN FOUND                       *       03800003
*         04=  DEVICE ADDRESS WAS INVALID OR NO UCB EXISTS      *       03850003
*                                                               *       03900003
*    UCB=  CONTAINS THE ADDRESS OF THE UCB.                     *       03950003
*                                                               *       04000003
.*   PLS - REGISTER 1 IS NOT RESTORED.                          *       04050003
.*                                                              *       04100003
* ATTRIBUTES:                                                   *       04150003
*    THIS FUNCTION IS EXPANDED AS RE-ENTRANT CODE.              *       04200003
*                                                               *       04250003
* OTHER:                                                        *       04300003
*                                                               *       04350003
*    THE SAME REGISTER ASSIGNMENT CAN BE USED  FOR              *       04400003
*    UCB= AND DEV=                                              *       04450003
*                                                               *       04500003
*    THE EXPANSION OF THIS FUNCTION IS DEPENDENT ON THE         *       04550003
*    SPECIFICATION OF THE FOLLOWING MAPPING MACROS              *       04600003
*         CVT   DSECT=YES                                       *       04650003
*         IECDIOCM                                              *       04700003
.*        IHAPSA (NECESSARY ONLY IN PLS)                        *       04750003
.*   THE MACRO ?EPILOG MUST ALSO BE INCLUDED FOR PLS.           *       04800003
*                                                               *       05000003
*    THE DEVICE ADDRESS IN THE UCB RETURNED AS OUTPUT FROM THIS *       05050003
*    SERVICE MAY CHANGE AS A RESULT OF A DDR SWAP. THE CALLER   *       05100003
*    SHOULD ENSURE THAT A SWAP HAS NOT TAKEN PLACE BETWEEN      *       05150003
*    ISSUING THIS MACRO AND THE SUBSEQUENT USE OF THE UCB       *       05200003
*    ADDRESS.                                                   *       05250003
*                                                               *       05300003
*    CHANGE ACTIVITY -                                          *       05350003
*  A-000000-999999                                             @ZA41412 05400003
*****************************************************************       05450003
         SPACE 2                                                        05500003
IECIUPRM EQU   1                   PARM REG                             05550003
IECIUDEV EQU   6                   DEVICE ADDRESS                       05600003
IECIUSAV EQU   13                  SAVE AREA PTR                        05650003
IECIURTN EQU   14                  RETURN ADDRESS                       05700003
IECIUR15 EQU   15                  BRANCH ADDR AND RETURN CODE          05750003
.LOOK010 ANOP                                                           05800003
&S       SETC  '&SYSNDX'(2,3)                 SET LAST 3 DIGITS         05850003
         SPACE 2                                                        05900003
&NAME    STM   0,15,0(IECIUSAV)               SAVE REGS                 05950003
         AIF   ('&DEV' EQ '' OR '&DEV' EQ '(6)').LOOK020 DEV IN R6      06000003
         LR    IECIUDEV,&DEV(1)               GET DEVICE ADDR           06050003
*                                             *FROM CALLER              06100003
.LOOK020 ANOP                                                           06150003
         L     IECIUR15,CVTPTR                GET CVTPTR                06200003
         L     IECIUR15,CVTIXAVL-CVTMAP(0,IECIUR15) GET IOCM PTR        06250003
         L     IECIUR15,IOCGENA-IOCOM(0,IECIUR15) GET IECVGENA PTR      06300003
         BAL   IECIURTN,12(0,IECIUR15)         CALL IECVGENA            06350003
         SPACE                                                          06400003
         ST    IECIUPRM,&UCB.*4(0,IECIUSAV)   SET UCB ADDR              06550003
*                                             IN SAVEAREA REGISTER      06600003
         SPACE                                                          06650003
IECIU&S  LM    0,14,0(IECIUSAV)               RESTORE REGS              06700003
*                                  *REG 15 CONTAINS RETURN CODE         06750003
*                                   PASSED BY GENA                      06800003
         MEND                                                           06850003
*        */                                                             06900003
*IOSLOOK:                                                               06950003
*   MACRO                                                               07000003
*   KEYS(DEV,UCB);                                                      07050003
*   /*    EXTERNAL VARIABLES                                         */ 07100003
*   DCL  EHAREGS    CHAR EXT;           /* REGS TO BE DCLD BY EPILOG */ 07150003
*   /*    INTERNAL VARIABLES                                         */ 07200003
*   DCL  INDENT     FIXED;              /* INDENT TWO COLUMNS        */ 07250003
*   DCL  IDENT      CHAR;               /* MACRO STATEMENT PARAMETERS*/ 07300003
*   DCL  IRFY1      CHAR;               /* USED TO RESPECIFY REG1 IF    07350003
*                                          UCB PARAMETER CODED       */ 07400003
*   /*    SET INITIAL VALUES                                         */ 07450003
*   INDENT=MACCOL+2;                                                    07500003
*   IDENT=' ?'||MACLABEL||MACNAME||MACLIST||' '||MACKEYS||' ';          07550003
*   IF UCB(1)^='' THEN                   /* UCB PARAM CODED?         */ 07600003
*      DO;                               /* YES                      */ 07650003
*        IRFY1=',GPR01P';                /* SET UP TO RFY REG1       */ 07700003
*        IF INDEX(EHAREGS,'01P')=0 THEN  /* ADD REG1 TO EHAREGS      */ 07750003
*           EHAREGS=EHAREGS||'01P';                                     07800003
*      END;                                                             07850003
*   /* CHECK TO SEE IF REGS ALREADY DCLD. IF NOT, ADD TO EHAREGS     */ 07900003
*   IF INDEX(EHAREGS,'00P')=0 THEN                                      07950003
*      EHAREGS=EHAREGS||'00P';                                          08000003
*   IF INDEX(EHAREGS,'02P')=0 THEN                                      08050003
*      EHAREGS=EHAREGS||'02P';                                          08100003
*   IF INDEX(EHAREGS,'06P')=0 THEN                                      08150003
*      EHAREGS=EHAREGS||'06P';                                          08200003
*   IF INDEX(EHAREGS,'13P')=0 THEN                                      08250003
*      EHAREGS=EHAREGS||'13P';                                          08300003
*   IF INDEX(EHAREGS,'14P')=0 THEN                                      08350003
*      EHAREGS=EHAREGS||'14P';                                          08400003
*   IF INDEX(EHAREGS,'15P')=0 THEN                                      08450003
*      EHAREGS=EHAREGS||'15P';                                          08500003
*   IF MACLABEL^='' THEN                                                08550003
*      ANS(MACLABEL)     COL(MACLMAR);       /* GENERATE MACRO LABEL */ 08600003
*   ANS('DO; '||COMMENT(IDENT))        COL(MACCOL);  /* BEGIN MACRO     08650003
*                                      AND LIST MACRO PARAMETERS    */  08700003
*   ANS(COMMENT('        IOSLOOK MACRO SYNTAX:      '))                 08750003
*         COL(2);                                                       08800003
*   ANS(COMMENT('?LABEL: IOSLOOK DEV(VARIABLE) UCB(VARIABLE)'))         08850003
*         COL(2);                                                       08900003
*   ANS(COMMENT('     DEV - IF THIS PARAMETER IS OMITTED, REGISTER 6 IS 08950003
*ASSUMED')) COL(2);                                                     09000003
*   ANS(COMMENT('     UCB - IF THIS PARAMETER IS OMITTED, REGISTER 1 IS 09050003
*ASSUMED')) COL(2);                                                     09100003
*   ANS(COMMENT('NOTE: REGISTER 13 MUST POINT TO A 16 WORD SAVEAREA.')) 09150003
*        COL(2);                                                        09200003
*   ANS(COMMENT('     THIS IS A NON-STANDARD SAVEAREA,  REGISTERS 0-15  09250003
*WILL ')) COL(2);                                                       09300003
*   ANS(COMMENT('     BE STORED AT THE ADDRESS PASSED IN REGISTER 13.') 09350003
*      ) COL(2);                                                        09400003
*   ANS(COMMENT('     ALSO, REGISTER 1 IS NOT RESTORED.')) COL(2);      09450003
*   ANS('RFY(GPR00P'||IRFY1||',GPR06P,GPR13P,GPR14P,GPR15P) RSTD; ')    09500003
*         COL(INDENT);                                                  09550003
*   ANS('STM(GPR00P,GPR15P,GPR13P->I256C); '||                          09600003
*         COMMENT('SAVE REGISTERS'))              COL(INDENT);          09650003
*   IF DEV(1)^='' THEN                                                  09700003
*      ANS('GPR06P='||DEV(1)||'; '||                                    09750003
*            COMMENT('REG6 = DEVICE ADDRESS'))    COL(INDENT);          09800003
*   ANS('GPR15P=FLCCVT->CVTIXAVL->IOCGENA; '||                          09850003
*         COMMENT('GET IECVGENA ENTRY POINT'))    COL(INDENT);          09900003
*   ANS('GEN (BAL   GPR14P,12(0,GPR15P)); '||                           09950003
*       COMMENT('BRANCH TO IOSLOOK ENTRY POINT OF GENA'))               10000003
*                                                 COL(INDENT);          10050003
*   ANS('LM(GPR02P,GPR14P,(GPR13P+8)->I256C); '||                       10100003
*         COMMENT('RESTORE REGS 2-14. REGISTER 15 CONTAINS RETURN CODE  10150003
* PASSED BY GENA. NOTE: REGISTER 1 NOT RESTORED')) COL(INDENT);         10200003
*   ANS('GPR00P=GPR13P->I031F; '||                                      10250003
*         COMMENT('RESTORE REG0 FROM SAVEAREA'))  COL(INDENT);          10300003
*   IF UCB(1)^='' THEN                                                  10350003
*      DO;                                                              10400003
*         ANS(UCB(1)||'=GPR01P; '||                                     10450003
*         COMMENT('PUT UCB ADDRESS IN UCB VARIABLE'))                   10500003
*                                                 COL(INDENT+2);        10550003
*      END;                                                             10600003
*   ANS('RFY(GPR00P'||IRFY1||',GPR06P,GPR13P,GPR14P,GPR15P) UNRSTD; ')  10650003
*         COL(INDENT);                                                  10700003
*   ANS('END; '||COMMENT(IDENT))   COL(MACCOL);   /* END MACRO       */ 10750003
*%END IOSLOOK;                                                          10800003
