         MACRO                                                          00050064
&NAME    IOSMAP &TABLE=,&UCB=,&VAR=,&LINKR=                             00100064
         GBLB   &IECMREG         FIRST TIME SWITCH                      00150064
         AIF   ('&IECMREG' EQ '1').MAP001                               00200064
&IECMREG SETB 1                  SET FIRST TIME SWITCH                  00250064
         SPACE 2                                                        00300064
*****************************************************************       00350064
*                                                               *       00400064
*                      IOSMAP MACRO                             *       00450064
*                                                               *       00500064
*                     OS/VS2 LEVEL=00                           *       00550064
*                                                               *       00600064
* FUNCTION:                                                     *       00650064
*       DETERMINES THE AVAILABILITY OF ALL PATHS TO A           *       00700064
*       DEVICE, WHETHER ONLINE OR OFFLINE.  THE STATUS OF       *       00750064
*       EACH CHANNEL SET AND THE CHANNEL AVAILABILITY TABLE     *       00800064
*       FOR EACH CHANNEL SET WILL BE CHECKED AS WILL THE        *       00850064
*       UCB CHANNEL MASK.                                       *       00900064
*                                                               *       00950064
* MACRO CALL:                                                   *       01000064
*    LABEL  IOSMAP  TABLE=LABEL OR (REG),UCB=(REG),             *       01050064
*                   LINKR=(REG),VAR=1                           *       01100064
*                                                               *       01150064
*         PLS - GEN REFS(CVT,CVTPTR,CVTIXAVL,IOCOM,IOCMAP)      *       01200064
*               (IOSMAP  KEYWORDS AS IN BAL);                   *       01250064
*                                                               *       01300064
* INPUT:                                                        *       01350064
*    REGISTER 13 MUST CONTAIN THE ADDRESS OF A 16 WORD          *       01400064
*    SAVEAREA.                                                  *       01450064
*                                                               *       01500064
*    TABLE=  MUST SPECIFY THE ADDRESS OF A TWO WORD AREA IN     *       01550064
*    WHICH THE MAP WILL BE BUILT. OPTIONALLY, THE ADDRESS OF    *       01600064
*    THE TABLE MAY BE PASSED IN ANY REGISTER OTHER THAN 13.     *       01650064
*    IF OMITTED, REGISTER 5 IS ASSUMED.                         *       01700064
*                                                               *       01750064
*    UCB=  MUST SPECIFY A GPR (SYMBOLIC OR ABSOLUTE), CON-      *       01800064
*    TAINING THE ADDRESS OF THE UCB COMMON SEGMENT FOR WHICH    *       01850064
*    PATH STATUS TO BE DETERMINED.  IF OMITTED, REGISTER 4      *       01900064
*    IS ASSUMED.                                                *       01950064
*                                                               *       01990064
*    LINKR=  MAY SPECIFY A GPR (OTHER THAN 13) CONTAINING       *       02030064
*    A RETURN ADDRESS FROM THE MAP FUNCTION.  IF OMITTED,       *       02070064
*    RETURN WILL BE TO THE NEXT SEQUENTIAL INSTRUCTION.         *       02110064
*                                                               *       02200064
*    VAR=  MUST BE SET TO 1.                                    *       02250064
*                                                               *       02300064
*    LABEL - OPTIONAL LABEL.                                    *       02350064
*                                                               *       02400064
* OUTPUT:                                                       *       02450064
*    THE GENERATED PATH MAP TABLE WILL REFLECT THE ONLINE       *       02500064
*    AND OFFLINE STATUS FOR EACH OF THE PATHS TO THE DEVICE     *       02550064
*    FROM EACH CHANNEL SET.  OFFLINE PATHS ARE A RESULT OF AN   *       02600064
*    EXPLICIT VARY COMMAND OR DUE TO IPL/NIP PATH               *       02650064
*    INITIALIZATION.  NON-EXISTENT PATHS (ONLY ONE PATH FROM    *       02700064
*    EACH CHANNEL SET OR AN ASYMMETRIC DEVICE) WILL SHOW        *       02750064
*    AS OFFLINE.  THE FORMAT OF THE TABLE FOLLOWS:              *       02800064
*                                                               *       02850064
*                                     CHANNEL  CHANNEL          *       02900064
*                                      SET-0    SET-1           *       02950064
*                  +0               +2      +3                  *       03000064
*                  ************************************         *       03050064
* PRIMARY PATHS    * DEVICE ADDRESS *   00   *   01   *         *       03100064
*                  +4 ************* +6 ***** +7 *******         *       03150064
* SECONDARY PATHS  * DEVICE ADDRESS *   01   *   00   *         *       03200064
*                  ************************************         *       03250064
*                                                               *       03300064
* WHERE  00 = PATH NOT AVAILABLE (OFFLINE)                      *       03350064
*        01 = PATH AVAILABLE (ONLINE)                           *       03400064
*                                                               *       03450064
*    WHEN THERE IS ONLY A PRIMARY PATH (POSSIBLY ONE FROM       *       03500064
*    EACH CHANNEL SET), THE PRIMARY AND SECONDARY DEVICE        *       03540064
*    ADDRESSES ARE THE SAME AND PATHS FROM EACH CHANNEL SET     *       03580064
*    FOR THE SECONDARY ENTRY ARE MARKED AS NOT AVAILABLE.       *       03620064
*                                                               *       03700064
* OTHER:                                                        *       03750064
*    THE EXPANSION OF THIS FUNCTION IS DEPENDENT ON THE         *       03800064
*    SPECIFICATION OF THE FOLLOWING MAPPING MACROS              *       03850064
*    IN THE CALLING CSECT ASSEMBLY:                             *       03900064
*         CVT   DSECT=YES             IECDIOCM                  *       03950064
*                                                               *       04000064
*    LOCKS ARE NOT REQUIRED BY THIS FUNCTION.                   *       04050064
*                                                               *       04100064
.* A-000000-999999                                             @G64APLK 04120064
*****************************************************************       04150064
         SPACE 2                                                        04200064
*****************************************************************       04250064
*                                                               *       04300064
*        REGISTER DEFINITIONS                                   *       04350064
*                                                               *       04400064
*****************************************************************       04450064
         SPACE                                                          04500064
IECIMR0  EQU   0                   REGISTER 0                           04550064
IECIMWK1 EQU   2                   WORK REG                             04600064
IECIMUCB EQU   4                   UCB PTR                              04650064
IECIMTBL EQU   5                   PATH TABLE PTR                       04700064
IECIMSAV EQU   13                  SAVE AREA PTR                        04750064
IECIMRTN EQU   14                  DEFAULT RETURN REG                   04800064
IECIMENT EQU   15                  ENTRY REGISTER                       04850064
.MAP001  ANOP                                                           04900064
.*                                                                      04950064
.*       CHECK FOR MISSING PARAMETERS                                   05000064
.*                                                                      05050064
         AIF   ('&VAR' NE '1').IOSERR                                   05100064
         SPACE                                                          05150064
*****************************************************************       05200064
*                                                               *       05250064
*        ESTABLISH INTERFACE AND CALL IECVMAP                   *       05300064
*                                                               *       05350064
*****************************************************************       05400064
         SPACE                                                          05450064
&NAME    STM   IECIMR0,IECIMENT,0(IECIMSAV) SAVE REGS                   05500064
         AIF   ('&TABLE' EQ '').MAP005                                  05550064
         AIF   ('&TABLE'(1,1) EQ '(').MAP003                            05590064
         LA    IECIMTBL,&TABLE      GET PATH TABLE PARM ADDR            05630064
         AGO   .MAP005                                                  05670064
.MAP003  ANOP                                                           05710064
         L     IECIMTBL,&TABLE(1).*4(,IECIMSAV) GET TABLE PTR           05750064
*                                      FROM SAVEAREA                    05800064
.MAP005  AIF   ('&UCB' EQ '').MAP010                                    05850064
         L     IECIMUCB,&UCB(1).*4(,IECIMSAV) GET UCBPTR FROM SAVEAREA  05900064
.MAP010  ANOP                                                           06100064
         SR    IECIMR0,IECIMR0      CLEAR REGISTER FOR VAR=1            06150064
         L     IECIMWK1,CVTPTR      GET CVT PTR                         06200064
         L     IECIMWK1,CVTIXAVL-CVT(IECIMWK1) GET IOCM PTR             06230064
         L     IECIMENT,IOCMAP-IOCOM(IECIMWK1) GET IECVMAP ADDRESS      06260064
         BALR  IECIMRTN,IECIMENT    CALL IECVMAP                        06350064
         LM    IECIMR0,IECIMENT,0(IECIMSAV) RESTORE REGS                06400064
         AIF   ('&LINKR' EQ '').MAP090                                  06450064
         BR    &LINKR(1)           RETURN TO CALLER                     06500064
.MAP090  ANOP                                                           06550064
         MEXIT                                                          06600064
.*                                                                      06650064
.IOSERR  MNOTE 8,'*** ERROR IN PARAMETER SET UP'                        06700064
         MEXIT                                                          06750064
         MEND                                                           06800064
