        MACRO                                                           00050000
&NAME    ISTACB1 &DDNAME=,&EXLST=0,&MACRF=,                    @ZA34940C00100000
               &JFCB=0,&BUFND=0,&BUFNI=0,&PASSWD=0,                    C00150000
               &BLKSIZE=0,&LRECL=0,&BUFSP=0,                           C00200000
               &CCTYPE=,&STRNO=1,&CATALOG=NO,                  @ZA07566C00250000
               &BSTRNO=0,&MAREA=0,&MLEN=0,&CRA=,                X04SVHSC00300000
               &AM=,&APPLID=0,&USERPTR=0,                      @ZA34940C00350000
               &PARMS=,&PARM2=,&PARM3=                         @ZA34940 00400000
.*                                                                      00450000
.*       CHANGE LEVEL = 0                                      @ZA34940 00500000
.*       DATE OF LAST CHANGE =  4 OCT  78 ( 78*277 )           @ZA34940 00550000
.*                                                             @ZA34940 00600000
.* FUNCTION-   THE FUNCTION OF THIS MACRO IS TO BUILD,         @ZA34940 00650000
.*             AT ASSEMBLY TIME, AN ACB FOR A VTAM USER.       @ZA34940 00700000
.*             ISTACB1 IS INVOKED BY THE MACRO ACB WHEN        @ZA34940 00750000
.*             A USER ISSUES AN ACB MACRO WITH 'AM=VTAM'       @ZA34940 00800000
.*             SPECIFIED.                                      @ZA34940 00850000
.*                                                             @ZA34940 00900000
.* CHANGE ACTIVITY                                             @ZA34940 00950000
.*      CBMM SPLIT SUPPORT                                     @ZA34940 01000000
.*                                                             @ZA34940 01050000
.* GLOBALS                                                      X04SVHS 01100000
         GBLC  &IDAMAC1,&IDAMAC2,&IDAMAC3 MACRF CODES           X04SVHS 01150000
         GBLC  &IDAIFL1                 CATALOG/CRA CODES       X04SVHS 01200000
         GBLA  &IDAENO                  NUMBER OF ELEMENTS     @ZA06420 01250000
.* LOCALS                                                       X04SVHS 01300000
         LCLA  &VTMEXT                  LENGTH OF VTAM EXT     X03004HS 01350000
         LCLA  &LEN                     SUBPARAMETER ACB LENGTH  X03004 01400000
         LCLA  &STYPE                   ACCESS METHOD ID        X04SVHS 01450000
         LCLB  &A,&M                    CCTYPE BITS                     01500000
.*                                                                      01550000
.*             INITIALIZE GLOBALS TO ZERO                               01600000
&IDAMAC1 SETC  '00000000'                                       X04SVHS 01650000
&IDAMAC2 SETC  '00000000'                                       X04SVHS 01700000
&IDAMAC3 SETC  '00000000'                                       X04SVHS 01750000
&IDAIFL1 SETC  '00000000'                                       X04SVHS 01800000
&IDAENO  SETA  0                                               @ZA06420 01850000
.*                                                                      01900000
         ISTCBACB MACRF=&MACRF,CATALOG=&CATALOG,CRA=&CRA,      @ZA34940*01950000
               AM=&AM,CALLER=ACB        SET VALUES FOR BIT     @ZA34940 02000000
.*                                      KEYWORDS IN GLOBALS     X04SVHS 02050000
.*            ISTCBACB IS CALLED TO PROCESS BIT KEYWORDS MACRF,@ZA34940 02100000
.*             CATALOG, AND CRA.  IT WILL VALIDITY CHECK OPTIONS        02150000
.*             SPECIFIED, MUTUALLY EXCLUSIVE CHECK WHERE APPLICABLE,    02200000
.*             AND SET GLOBALS WITH THE VALUES OF THE KEYWORDS.         02250000
.*                                                                      02300000
&LEN     SETA  76                       SET FOR COMMON LENGTH    X03004 02350000
         AIF   ('&AM' EQ '').SETLEN     IF AM IS NULL           X04SVHS 02400000
.*                                      DEFAULT LEN TO VSAM,    X04SVHS 02450000
.*                                      AND SUBTYPE TO 0        X04SVHS 02500000
.*                                                                      02550000
&STYPE   SETA  X'10'                    SET VSAM SUBTYPE        X04SVHS 02600000
         AIF   ('&AM' EQ 'VSAM').SETLEN IS IT VSAM              X04SVHS 02650000
&VTMEXT  SETA  12                       NO, SET VTAM EXT LEN   X03004HS 02700000
&STYPE   SETA  X'20'                    SET VTAM SUBTYPE        X04SVHS 02750000
         AIF   ('&AM' EQ 'VTAM').SETLEN IF VTAM SET VTAM LEN    X04SVHS 02800000
.*                                      AND SUBTYPE             X04SVHS 02850000
.*                                      ELSE ERROR              X04SVHS 02900000
&STYPE   SETA  0                        ZERO SUBTYPE            X04SVHS 02950000
&VTMEXT  SETA  0                        GENERATE NORMAL LEN ACB X04SVHS 03000000
         ISTERMAC 3,AM,&AM              ISSUE ERROR MSG        @ZA34940 03050000
.SETLEN  ANOP                                                   X04SVHS 03100000
&NAME    DS    0F                                                       03150000
         DC    X'A0' .                  ACB IDENTIFICATION              03200000
         DC    AL1(&STYPE)              ACB SUBTYPE             X04SVHS 03250000
.*             X'11' - X'1F' ARE RESERVED FOR VSAM              X04SVHS 03300000
.*             X'21' - X'2F' ARE RESERVED FOR VTAM              X04SVHS 03350000
         DC    AL2(&LEN+&VTMEXT) .      ACB LENGTH             X03004HS 03400000
         DC    A(0) .                   AMB LIST POINTER                03450000
         AIF   ('&AM' NE 'VTAM').SETIRR IF NOT VTAM ACBINRTN = ZERO     03500000
.*                                                             X03004HS 03550000
         DC    A(*+&LEN-8)  .           PTR TO VTAM EXTENSION  X03004HS 03600000
         AGO   .MACRF1                                         X03004HS 03650000
.SETIRR  ANOP                                                           03700000
         DC    A(0) .                   INTERFACE ROUTINE POINTER       03750000
.*       MACRF PROCESSING                                               03800000
.MACRF1  ANOP                                                   X04SVHS 03850000
         DC    B'&IDAMAC1'              MACRF(1)                X04SVHS 03900000
         DC    B'&IDAMAC2'              MACRF(2)                X04SVHS 03950000
         DC    AL1(&BSTRNO) .           NO OF CONCURRENT        X04SVHS 04000000
*                                       STRINGS FOR AIX PATH    X04SVHS 04050000
         DC    AL1(&STRNO) .            NUMBER OF STRINGS       X04SVHS 04100000
         DC    AL2(&BUFND) .            NUMBER OF DATA BUFFERS          04150000
         DC    AL2(&BUFNI) .            NUMBER OF INDEX BUFFERS         04200000
         DC    B'&IDAMAC3'              MACRF(3)                X04SVHS 04250000
         DC    B'00000000' .            MACRF(4)                X04SVHS 04300000
         DC    AL2(0) .                 JES BUFFER POOL/NUMBER  X04SVHS 04350000
*                                       OF JOURNAL BUFFERS              04400000
         DC    X'80' .                  RECFM=A                         04450000
         AIF   ('&CCTYPE' EQ '').CCSET                                  04500000
&A       SETB  ('&CCTYPE' EQ 'A')                                       04550000
&M       SETB  ('&CCTYPE' EQ 'M')                                       04600000
         AIF   (&A OR &M).CCSET                                         04650000
         ISTERMAC 5,CCTYPE,&CCTYPE                             @ZA34940 04700000
.CCSET   DC    B'00000&A&M.0' .         CONTROL CHARACTER TYPE          04750000
         DC    X'0008' .                DSORG=ACB                       04800000
         AIF   ('&MAREA' EQ '0').GENM0 IF &MAREA = 0 BYPASS     X04SVHS 04850000
.*                                      CHKING FOR AM=VSAM      X04SVHS 04900000
         AIF   ('&AM' EQ '' OR '&AM' EQ 'VSAM').GENMA           X04SVHS 04950000
.*                                      IF NOT VSAM ACB, ERROR  X04SVHS 05000000
         ISTERMAC 24,MAREA              ISSUE ERR MSG          @ZA34940 05050000
         AGO   .GENM0                                           X04SVHS 05100000
.GENMA   ANOP                                                   X04SVHS 05150000
         DC    A(&MAREA)  .             MESSAGE AREA            X04SVHS 05200000
         AGO   .GPSWD                                           X04SVHS 05250000
.GENM0   ANOP                                                   X04SVHS 05300000
         DC    A(0)                                             X04SVHS 05350000
.GPSWD   ANOP                                                   X04SVHS 05400000
         DC    A(&PASSWD) .             PASSWORD POINTER                05450000
         DC    A(&EXLST) .              EXIT LIST POINTER               05500000
         AIF   ('&DDNAME' NE '' AND '&AM' NE 'VTAM').DDNMCHK   @ZA31869 05550000
         AIF   ('&DDNAME' EQ '').VTAM   NO DDNAME SPECIFIED?     X03004 05600000
         ISTERMAC 24,DDNAME             NOT A VTAM KEYWORD     @ZA34940 05650000
         AGO   .ACBB2                                            X03004 05700000
.VTAM    ANOP                                                    X03004 05750000
         AIF   ('&AM' NE 'VTAM').NONAME TRY LABEL IF NO VTAM     X03004 05800000
         DC    X'FF' .                  INDICATE VTAM            X03004 05850000
         DC    XL7'00' .                PAD WITH ZEROS           X03004 05900000
         AGO   .ACBB3                                            X03004 05950000
.NONAME  ANOP                                                    X03004 06000000
         AIF   ('&NAME' EQ '').BLANK    IS THERE A LABEL                06050000
         DC    CL8'&NAME' .             DDNAME                          06100000
         AGO   .ACBB3                                                   06150000
.BLANK   DC    CL8' ' .                 DDNAME                          06200000
         AGO   .ACBB3                                                   06250000
.DDNMCHK ANOP                                                  @ZA31869 06300000
         AIF   (K'&DDNAME GT 8 OR '&DDNAME'(1,1) LT 'A' OR             C06350000
               '&DDNAME'(1,1) GT 'Z').DDNMERR  CHECK FOR VALID @ZA31869 06400000
         AGO   .ACBB2                          DDNAME          @ZA31869 06450000
.DDNMERR ISTERMAC 3,DDNAME,&DDNAME      INVALID DDNAME         @ZA34940 06500000
.ACBB2   DC    CL8'&DDNAME' .           DDNAME                          06550000
.ACBB3   DC    X'02' .                  OFLAGS                          06600000
         DC    AL1(0) .                 ERFLAGS                         06650000
         DC    B'&IDAIFL1'              INFLGS(1)               X04SVHS 06700000
         DC    B'00000000'              INFLGS(2)               X04SVHS 06750000
         DC    A(&JFCB) .               OPENJ JFCB POINTER              06800000
         DC    A(&BUFSP)                BUFFER SPACE                    06850000
         AIF   ('&BLKSIZE' EQ '0').CHKMLN                       X04SVHS 06900000
         AIF   ('&MLEN' EQ '0').BLKSET                          X04SVHS 06950000
.*             IF BLKSIZE AND MLEN ARE BOTH SPECIFIED           X04SVHS 07000000
.*             IT IS AN ERROR                                   X04SVHS 07050000
         ISTERMAC 19,BLKSIZE,MLEN                              @ZA34940 07100000
.BLKSET  ANOP                                                   X04SVHS 07150000
         DC    AL2(&BLKSIZE) .          BLOCK SIZE                      07200000
         AGO   .LRECLST                                         X04SVHS 07250000
.CHKMLN  ANOP                                                   X04SVHS 07300000
         AIF   ('&MLEN' EQ '0').BLKSET                          X04SVHS 07350000
.*                                      IF MLEN IS SPEC,        X04SVHS 07400000
.*                                      CHECK FOR VSAM ACB      X04SVHS 07450000
         AIF   ('&AM' NE '' AND '&AM' NE 'VSAM').MLERR          X04SVHS 07500000
.*                                      IF NOT VSAM ACB, ERROR  X04SVHS 07550000
         DC    AL2(&MLEN)               MESSAGE LENGTH          X04SVHS 07600000
         AGO   .LRECLST                                         X04SVHS 07650000
.MLERR   ISTERMAC 24,MLEN               ISSUE ERR MSG          @ZA34940 07700000
         AGO   .BLKSET                                          X04SVHS 07750000
.LRECLST ANOP                                                   X04SVHS 07800000
         DC    AL2(&LRECL) .            RECORD SIZE                     07850000
         AIF   ('&USERPTR' EQ '0').UPTR  NO USER PTR PROVIDED           07900000
         DC    A(&USERPTR)              ADDRESS OF USER WORKAREA        07950000
         AGO   .CBMWP                                                   08000000
.UPTR    DC    A(0) .                   USER WORKAREA POINTER           08050000
.CBMWP   DC    A(0)                     CONTROL BLOCK MANIPULATION      08100000
*                                       WORKAREA POINTER                08150000
         AIF   ('&AM' EQ 'VTAM').SETAPP  WAS VTAM SPECIFIED      X03004 08200000
         AIF   ('&APPLID' EQ '0').NONAPP  WAS APPLID SPECIFIED   X03004 08250000
         ISTERMAC 18,APPLID                                    @ZA34940 08300000
.NONAPP  ANOP                           IGNORE APPLID            X03004 08350000
         DC    A(0) .                   PTR TO APPLICATION NAME  X03004 08400000
         MEXIT                          END THE MACRO            X03004 08450000
.SETAPP  ANOP                           VTAM SPECIFIED           X03004 08500000
         DC    A(&APPLID) .             PTR TO APPLICATION NAME  X03004 08550000
         LA    15,32                    SET RETURN CODE(VTAM)    X03004 08600000
         BR    14                       RETURN TO CALLER(VTAM)   X03004 08650000
         DC    H'0'                     RESERVED                 X03004 08700000
         DC    F'0'                     RESERVED                 X03004 08750000
.OUT     MEND                                                           08800000
