         MACRO                                                          00050000
&NAME    ISTRPL1 &ACBDATA=,&AREA=0,&ARG=0,&NXTRPL=0,&KEYLEN=0, @ZA34940C00100000
               &ECB=,&BUFL=,&LEN=,&MSGLEN=0,&ERRMSG=,          @ZA34940C00150000
               &CCHAR=0,&OPTCD=,&NIB=,&BRANCH=,                  X03004C00200000
               &ACB=,&AREALEN=,&MSGAREA=,&RECLEN=,               X03004C00250000
               &AM=,&AAREA=0,&AAREALN=0,&EXIT=,&ARECLEN=0,       X03004C00300000
               &SEQNO=0,&USENSEO=0,&IBSQVAL=0,&OBSQVAL=0,       X3004BHC00350000
               &POST=,&RESPOND=,&CHAIN=,&CONTROL=,&CHNGDIR=,    X3004BHC00400000
               &BRACKET=,&SSENSMO=0,&TRANSID=0,                X03004JSC00450000
               &SSENSEO=,&RTYPE=,&STYPE=,&IBSQAC=,&OBSQAC=,     X04SVHSC00500000
               &SIGDATA=0,&CODESEL=,                           @Z40BHUCC00550000
               &CRYPT=,                                        @ZA34940C00600000
               &PARMS=,&PARM2=,&PARM3=                         @ZA34940 00650000
.*                                                                      00700000
.*             CHANGE LEVEL = 0                                @ZA34940 00750000
.*             DATE OF LAST CHANGE = 4  OCT   78 ( 78*277 )    @ZA34940 00800000
.*                                                                      00850000
.* FUNCTION-   THE FUNCTION OF THIS MACRO IS TO BUILD,         @ZA34940 00900000
.*             AT ASSEMBLY TIME, AN EXIT LIST FOR              @ZA34940 00950000
.*             A VTAM USER.                                    @ZA34940 01000000
.*             ISTRPL1 IS INVOKED BY THE MACRO RPL WHEN A      @ZA34940 01050000
.*             USER ISSUES AN EXLST MACRO WITH 'AM=VTAM'       @ZA34940 01100000
.*             SPECIFIED.                                      @ZA34940 01150000
.*                                                             @ZA34940 01200000
.* CHANGE ACTIVITY                                             @ZA34940 01250000
.*      CBMM SPLIT SUPPORT                                     @ZA34940 01300000
.*                                                             @ZA34940 01350000
.*             THE FOLLOWING GLOBALS ARE SET IN ISTCBOPT WITH  @ZA34940 01400000
.*             THE VALUES OF THE VARIOUS OPTCD BYTES           @ZA34940 01450000
         GBLC  &IDAOP1,&IDAOP2,&IDAOP5,&IDAOP6,&IDAOP7,&IDAOP8  X04SVHS 01500000
         GBLC  &IDAOP9,&IDAOPA,&IDAOPB,&IDAOPC  OPTCD CODES     X04SVHS 01550000
         GBLC  &IDABRCH                 BRANCH CODE             X04SVHS 01600000
         GBLC  &IDASNSO                 SSENSEO CODES           X04SVHS 01650000
         GBLC  &IDACRYP                 ENCRIPTION CODE        @G40AKCM 01700000
         GBLC  &IDARH3                 CHNGDIR/BRACKET/CODESEL @Z40BHUC 01750000
         GBLC  &IDASRTY                 STYPE, RTYPE CODES      X04SVHS 01800000
         GBLC  &IDACHN                  CHAIN CODES             X04SVHS 01850000
         GBLC  &IDAPORE                 POST RESPOND CODES      X04SVHS 01900000
         GBLC  &IDACON1,&IDACON2,&IDACON3 CONTROL CODES         X04SVHS 01950000
         GBLC  &IDAOBQC                 OBSQAC CODES            X04SVHS 02000000
         GBLC  &IDAIBQC                 IBSQAC CODES            X04SVHS 02050000
         GBLA  &IDAENO                  NUMBER OF ELEMENTS     @ZA06420 02100000
.* LOCALS                                                               02150000
         LCLA  &LENG                    SUBPARAMETER RPL LENGTH  X03004 02200000
         LCLA  &SUBTYPE                 SUBTYPE CODE            X04SVHS 02250000
         LCLB  &ECBX                                            X04SVHS 02300000
         LCLB  &EXITB,&NOEXIT,&NIBD                             X04SVHS 02350000
.*             INITIALIZE GLOBAL VARIABLES                              02400000
&IDAOP1  SETC  '0000000'                                        X04SVHS 02450000
&IDAOP2  SETC  '00000000'                                       X04SVHS 02500000
&IDAOP5  SETC  '00000000'                                       X04SVHS 02550000
&IDAOP6  SETC  '00000000'                                       X04SVHS 02600000
&IDAOP7  SETC  '00000000'                                       X04SVHS 02650000
&IDAOP8  SETC  '00000000'                                       X04SVHS 02700000
&IDAOP9  SETC  '00000000'                                       X04SVHS 02750000
&IDAOPA  SETC  '00000000'                                       X04SVHS 02800000
&IDAOPB  SETC  '00000000'                                       X04SVHS 02850000
&IDAOPC  SETC  '00000000'                                       X04SVHS 02900000
&IDABRCH SETC  '0'                                              X04SVHS 02950000
&IDASNSO SETC  '00000000'                                       X04SVHS 03000000
&IDARH3  SETC  '00000000'                                       X04SVHS 03050000
&IDASRTY SETC  '00000000'                                       X04SVHS 03100000
&IDACRYP SETC  '0'                                             @G40AKCM 03150000
&IDACHN  SETC  '00000000'                                       X04SVHS 03200000
&IDAPORE SETC  '00000000'                                       X04SVHS 03250000
&IDACON1 SETC  '00000000'                                       X04SVHS 03300000
&IDACON2 SETC  '00000000'                                       X04SVHS 03350000
&IDACON3 SETC  '00000000'                                       X04SVHS 03400000
&IDAOBQC SETC  '00000000'                                       X04SVHS 03450000
&IDAIBQC SETC  '00000000'                                       X04SVHS 03500000
&IDAENO  SETA  0                                               @ZA06420 03550000
.*                                                                      03600000
&LENG    SETA  76                       SET NON VTAM LENGTH      X03004 03650000
         AIF   ('&AM' NE 'VTAM').SETLEN  WAS VTAM SPECIFIED      X03004 03700000
&LENG    SETA  112                      YES; SET VTAM LENGTH   @Z40BHUC 03750000
.SETLEN  ANOP                           NO; USE NON VTAM LENGTH  X03004 03800000
&NAME    DS    0F                                                       03850000
         DC    AL1(0)                   RPL IDENTIFICATION              03900000
&SUBTYPE SETA  X'10'                    SET VSAM SUBTYPE        X04SVHS 03950000
         AIF   ('&AM' EQ 'VSAM').SSTYPE CHK FOR AM = VSAM               04000000
         AIF   ('&AM' EQ '').SSTYPE     DEFAULT AM = VSAM               04050000
&SUBTYPE SETA  X'20'                    SET VTAM SUBTYPE        X04SVHS 04100000
         AIF   ('&AM' EQ 'VTAM').SSTYPE CHK FOR AM = VTAM       X04SVHS 04150000
.*                                      IF NOT ERROR            X04SVHS 04200000
&SUBTYPE SETA  0                        SET SUBTYPE TO ZERO     X04SVHS 04250000
         ISTERMAC 3,AM,&AM              ISSUE ERROR MSG        @ZA34940 04300000
.SSTYPE  ANOP                                                   X04SVHS 04350000
         DC    AL1(&SUBTYPE)            RPL SUBTYPE             X04SVHS 04400000
         DC    AL1(0)                   RPL REQUEST TYPE                04450000
         DC    AL1(&LENG)               RPL LENGTH               X03004 04500000
         ISTCBRPL OPTCD=&OPTCD,BRANCH=&BRANCH,POST=&POST,      @ZA34940*04550000
               RESPOND=&RESPOND,CHAIN=&CHAIN,CONTROL=&CONTROL,         *04600000
               CHNGDIR=&CHNGDIR,BRACKET=&BRACKET,SSENSEO=&SSENSEO,     *04650000
               CODESEL=&CODESEL,                               @Z40BHUC*04700000
               RTYPE=&RTYPE,STYPE=&STYPE,IBSQAC=&IBSQAC,               *04750000
               OBSQAC=&OBSQAC,CALLER=RPL,AM=&AM,                X04SVHSC04800000
               CRYPT=&CRYPT                                    @G40AKCM 04850000
.*                                                                      04900000
.*             ISTCBRPL IS CALLED TO PROCESS BIT KEYWORDS      @ZA34940 04950000
.*             OPTCD,                                          @ZA34940 05000000
.*             BRANCH, POST, RESPOND, CHAIN, CONTROL, CHNGDIR, BRACKET, 05050000
.*             CODESEL, SSENSEO, RTYPE, STYPE, IBSQAC, AND OBSQAC.      05100000
.*             IT WILL VALIDITY CHECK THE OPTIONS SPECIFIED, MUTUALLY   05150000
.*             EXCLUSIVE CHECK WHERE APPLICABLE, AND SET GLOBALS        05200000
.*             WITH THE VALUES OF THE KEYWORDS.                         05250000
.*                                                                      05300000
         DC    A(0) .                   POINTER TO PLACEHOLDER          05350000
         AIF   ('&ECB' EQ '' AND '&EXIT' EQ '').DEFAULT         X04SVHS 05400000
         AIF   ('&ECB' EQ '').EXIT      TRY EXIT IF NOT ECB      X03004 05450000
         DC    A(&ECB) .                POINTER TO ECB                  05500000
         AIF   ('&EXIT' EQ '').NOEXTSP                          X04SVHS 05550000
         ISTERMAC 19,ECB,EXIT           ISSUE ERROR MSG        @ZA34940 05600000
         AGO   .NOEXTSP                                          X03004 05650000
.EXIT    AIF   ('&EXIT' EQ '').DEFAULT  DEFAULT IF NOT EXIT     X04SVHS 05700000
         AIF   ('&AM' EQ 'VTAM').SETEXIT  WAS VTAM SPECIFIED     X03004 05750000
         ISTERMAC 18,EXIT               ISSUE ERROR MSG        @ZA34940 05800000
         AGO   .DEFAULT                 DO NOT SET ASYNCH EXIT   X03004 05850000
.SETEXIT ANOP                           SET ASYNCH EXIT          X03004 05900000
         DC    A(&EXIT) .               POINTER TO ASYNCH EXIT   X03004 05950000
&EXITB   SETB  1                                                 X03004 06000000
         AGO   .ENDEXIT                                          X03004 06050000
.DEFAULT ANOP                                                    X03004 06100000
         DC    A(0) .                   ECB                             06150000
.NOEXTSP ANOP                                                    X03004 06200000
&NOEXIT  SETB  1                                                 X03004 06250000
.ENDEXIT ANOP                                                    X03004 06300000
         DC    BL1'0' .                 STATUS BYTE                     06350000
         DC    XL3'0'                   FEEDBACK CODES                  06400000
.*                                                              X3004BH 06450000
.* IF AM=VTAM, A VTAM SECTION OVERLAYS THE TWO WORDS CONTAINING X3004BH 06500000
.* KEYLEN,STRING ID AND CONTROL CHARACTER POINTER.  IF NOT      X3004BH 06550000
.* VTAM, ALL VTAM KEYWORDS FOR THIS AREA ARE INVALID.           X3004BH 06600000
.*                                                              X3004BH 06650000
         AIF   ('&AM' EQ 'VTAM').OVLY16 IF VTAM GO TO OVERLAY   X3004BH 06700000
         DC    AL2(&KEYLEN) .           KEY LENGTH                      06750000
         DC    AL2(&TRANSID) .          TRANSID                 X04SVHS 06800000
         DC    A(&CCHAR)                POINTER TO CONTROL CHARACTER    06850000
.*                                                                      06900000
.*             THE ACB ADDRESS CAN BE SPECIFIED BY ACB= OR ACBDATA=     06950000
.ACB     ANOP                                                   X3004BH 07000000
         AIF   ('&ACBDATA' EQ '').TRYACB CHECK FOR ACB= IF NOT ACBDATA  07050000
         DC    A(&ACBDATA) .            POINTER TO DATA ACB             07100000
         AGO   .ACBEND                                                  07150000
.TRYACB  ANOP                                                           07200000
         AIF   ('&ACB' EQ '').NOACB      WAS ACB= SPECIFIED             07250000
         DC    A(&ACB) .                POINTER TO ACB                  07300000
         AGO   .ACBEND                                                  07350000
.NOACB   ANOP                                                           07400000
         DC    A(0) .                   RESERVED FOR ACB POINTER        07450000
.ACBEND  ANOP                                                           07500000
         DC    A(0) .                   POINTER TO TCB                  07550000
         DC    A(&AREA) .               POINTER TO RECORD AREA          07600000
.NIBARG  AIF   ('&NIB' EQ '').NONIB     BR IF NIB NOT SPECIFIED  X03004 07650000
         AIF   ('&ARG' EQ '0').NIB      BR IF ARG NOT SPECIFIED  X03004 07700000
         ISTERMAC 19,NIB,ARG            ISSUE ERROR MSG        @ZA34940 07750000
         DC    A(0)                     POINTER TO ARGUMENT      X03004 07800000
         AGO   .OPTCD                                           X3004BH 07850000
.NIB     ANOP                           NIB CHECK                X03004 07900000
         AIF   ('&AM' EQ 'VTAM').SETNIB WAS VTAM SPECIFIED       X03004 07950000
         ISTERMAC 18,NIB                ISSUE ERROR MSG        @ZA34940 08000000
         AGO   .NONIB                   SKIP NIB SETUP           X03004 08050000
.SETNIB  ANOP                           SET NIB                  X03004 08100000
         DC    A(&NIB)                  POINTER TO NIB           X03004 08150000
&NIBD    SETB  1                        INDICATE NIB SPECIFIED   X03004 08200000
         AGO   .OPTCD                                           X3004BH 08250000
.NONIB   ANOP                                                    X03004 08300000
         DC    A(&ARG) .                POINTER TO ARGUMENT             08350000
.OPTCD   ANOP                                                   X3004BH 08400000
&ECBX    SETB  ('&ECB' NE '' AND '&ECB' NE '0')                @XM01126 08450000
         DC    B'&IDAOP1&ECBX' .        OPTCD BYTE 1                    08500000
         DC    B'&IDAOP2' .            OPTCD BYTE 2                     08550000
         DC    AL1(0) .                 OPTCD BYTE 3            X04SVHS 08600000
         DC    AL1(0) .                 OPTCD BYTE 4            X04SVHS 08650000
         DC    A(&NXTRPL) .             POINTER TO NEXT RPL             08700000
.*             THE LRECL SIZE CAN BE SPECIFIED BY LEN= OR RECLEN=       08750000
         AIF   ('&LEN' EQ '').TRYLREC CHECK FOR RECLEN= IF NOT LEN      08800000
         DC    A(&LEN) .                LOGICAL RECORD LENGTH           08850000
         AGO   .LENEND                                                  08900000
.TRYLREC ANOP                                                           08950000
         AIF   ('&RECLEN' EQ '').NOLEN  WAS RECLEN= SPECIFIED           09000000
         DC    A(&RECLEN) .             LOGICAL RECORD LENGTH           09050000
         AGO   .LENEND                                                  09100000
.NOLEN   ANOP                                                           09150000
         DC    A(0) .                   RESERVED FOR LOGICAL REC LEN    09200000
.LENEND  ANOP                                                           09250000
.*             THE BUFFER SIZE CAN BE SPECIFIED BY BUFL= OR AREALEN=    09300000
         AIF   ('&BUFL' EQ '').TRYALEN CHECK FOR AREALEN= IF NOT BUFL   09350000
         DC    A(&BUFL) .               BUFFER LENGTH                   09400000
         AGO   .ALENEND                                                 09450000
.TRYALEN ANOP                                                           09500000
         AIF   ('&AREALEN' EQ '').NOALEN  WAS AREALEN= SPECIFIED        09550000
         DC    A(&AREALEN) .            BUFFER LENGTH                   09600000
         AGO   .ALENEND                                                 09650000
.NOALEN  ANOP                                                           09700000
         DC    A(0) .                   RESERVED FOR BUFFER LENGTH      09750000
.ALENEND ANOP                                                           09800000
*                                       OPTCD BYTES 5-8          X03004 09850000
         DC    B'&IDAOP5' .            BYTE 5                  X04SVHS  09900000
         DC    B'&IDAOP6' .            BYTE 6                  X04SVHS  09950000
         DC    B'&IDAOP7' .            BYTE 7                  X04SVHS  10000000
         DC    B'&IDAOP8' .            BYTE 8                  X04SVHS  10050000
.*                                                              X3004BH 10100000
.* IF AM=VTAM, A VTAM SECTION OVERLAYS THE TWO RBA WORDS.  IF   X3004BH 10150000
.* NOT VTAM, ALL VTAM KEYWORDS FOR THIS AREA ARE INVALID.       X3004BH 10200000
.*                                                              X3004BH 10250000
         AIF   ('&AM' EQ 'VTAM').OVLY60 IF VTAM GO TO OVERLAY   X3004BH 10300000
         AIF   ('&OBSQVAL' EQ '0').TSTIVL BRANCH IF NOT OBSQVAL X3004BH 10350000
         ISTERMAC 18,OBSQVAL            ISSUE ERROR MSG        @ZA34940 10400000
.TSTIVL  AIF   ('&IBSQVAL' EQ '0').TSTSEQ  BRANCH IF NOT IBSQVALX3004BH 10450000
         ISTERMAC 18,IBSQVAL            ISSUE ERROR MSG        @ZA34940 10500000
.TSTSEQ  AIF   ('&SEQNO' EQ '0').DEF60    BRANCH IF NOT SEQNO   X3004BH 10550000
         ISTERMAC 18,SEQNO              ISSUE ERROR MS         @ZA34940 10600000
.DEF60   ANOP                                                   X3004BH 10650000
         DC    XL8'0' .                 RBA                             10700000
.TSTBRCH ANOP                                                   X3004BH 10750000
         DC    B'0&NOEXIT&EXITB.0&IDACRYP&NIBD&IDABRCH.0'      @G40AKSL 10800000
         DC    AL1(0)                   ACTIVE INDICATOR                10850000
         DC    AL2(&MSGLEN) .           MAXIMUM ERROR MSG LENGTH        10900000
.*             THE MSGAREA CAN BE SPECIFIED BY ERRMSG OR MSGAREA        10950000
         AIF   ('&ERRMSG' EQ '').TRYMA CHECK FOR MSGAREA= IF NOT ERRMSG 11000000
         DC    A(&ERRMSG) .             POINTER TO ERROR MSG AREA       11050000
         AGO   .MAEND                                                   11100000
.TRYMA   ANOP                                                           11150000
         AIF   ('&MSGAREA' EQ '').NOMA  WAS MSGAREA= SPECIFIED          11200000
         DC    A(&MSGAREA) .            POINTER TO MESSAGE AREA         11250000
         AGO   .MAEND                                                   11300000
.NOMA    ANOP                                                           11350000
         DC    A(0) .                   RESERVED FOR MESSAGE AREA PTR   11400000
.MAEND   ANOP                                                    X03004 11450000
         AIF   ('&AM' EQ 'VTAM').VTAMEXT  WAS VTAM SPECIFIED     X03004 11500000
         AIF   ('&AAREA' EQ '0').NOAAREA  WAS AAREA SPECIFIED    X03004 11550000
         ISTERMAC 18,AAREA              ISSUE ERROR MSG        @ZA34940 11600000
.NOAAREA ANOP                           CHECK FOR AAREALN        X03004 11650000
         AIF   ('&AAREALN' EQ '0').NOARELN  AAREALN SPECIFIED    X03004 11700000
         ISTERMAC 18,AAREALN            ISSUE ERROR MSG        @ZA34940 11750000
.NOARELN ANOP                           CHECK FOR ARECLEN        X03004 11800000
         AIF   ('&ARECLEN' EQ '0').NOARCLN WAS ARECLEN SPECIFIED X03004 11850000
         ISTERMAC 18,ARECLEN            ISSUE ERROR MSG        @ZA34940 11900000
.NOARCLN ANOP                           CHECK FOR USENSEO       X3004BH 11950000
         AIF   ('&USENSEO' EQ '0').NOUSNSO WAS USENSEO SPECIFIEDX3004BH 12000000
         ISTERMAC 18,USENSEO            ISSUE ERROR MSG        @ZA34940 12050000
.NOUSNSO ANOP                                                   X3004BH 12100000
         AIF   ('&SSENSMO' EQ '0').NOSSNMO WAS SSENSMO SPEC    X03004JS 12150000
         ISTERMAC 18,SSENSMO            ISSUE ERROR MSG        @ZA34940 12200000
.NOSSNMO ANOP                           CHECK FOR SIGDATA      @Z40BHUC 12250000
         AIF   ('&SIGDATA' EQ '0').NOSIGDA WAS SIGDATA SPEC    @Z40BHUC 12300000
         ISTERMAC 18,SIGDATA            ISSUE ERROR MSG        @ZA34940 12350000
.NOSIGDA ANOP                           END OF CHECK           @Z40BHUC 12400000
         MEXIT                          NOT VTAM - END MACRO    X3004BH 12450000
.VTAMEXT ANOP                           SET VTAM PARAMETERS      X03004 12500000
         DC    A(&AAREA) .              ADDITIONAL DATA AREA PTR X03004 12550000
         DC    A(&AAREALN) .            ADDITIONAL AREA LENGTH   X03004 12600000
         DC    A(&ARECLEN) .            ADDITIONAL RECORD LENGTH X03004 12650000
         DC    XL4'0'                   FEEDBACK AREA            X03004 12700000
         DC    XL4'0'                   USER FIELD               X03004 12750000
         DC    B'&IDAOP9' .            OPTCD BYTE 9            X04SVHS  12800000
         DC    B'&IDAOPA' .            OPTCD BYTE 10           X04SVHS  12850000
         DC    B'&IDAOPB' .            OPTCD BYTE 11           X04SVHS  12900000
         DC    B'&IDAOPC' .            OPTCD BYTE 12           X04SVHS  12950000
         DC    B'&IDASNSO'              SYSTEM SENSE OUTPUT     X04SVHS 13000000
*                                       DATA                   X03004JS 13050000
         DC    AL1(&SSENSMO)            SYSTEM SENSE MODIFIER           13100000
*                                       OUTPUT                 X03004JS 13150000
         DC    AL2(&USENSEO)            USER SENSE OUTPUT       X3004BH 13200000
         DC    A(0)                     SAVE AREA OF FAST PATH @Z40BHUC 13250000
         DC    A(&SIGDATA)              SIGNAL DATA FIELD      @Z40BHUC 13300000
*                                                                       13350000
         MEXIT                          END OF VTAM EXTENSION   X3004BH 13400000
.*                                                              X3004BH 13450000
.* PROCESSING FOR VTAM FIELDS WHICH START AT OFFSET 16          X3004BH 13500000
.*                                                              X3004BH 13550000
.OVLY16  ANOP                                                   X3004BH 13600000
         DC    B'&IDARH3'               THIRD REQUEST HEADER            13650000
*                                                BYTE           X04SVHS 13700000
.*                                                              X3004BH 13750000
.* STYPE/RTYPE                                                  X3004BH 13800000
         DC    B'&IDASRTY'              SEND/RECEIVE TYPE       X04SVHS 13850000
         DC    B'&IDACHN'               REQUEST UNIT CHAIN POSITION     13900000
.*                                                              X04SVHS 13950000
         DC    X'00'                             VTAM FLAGS     X3004BH 14000000
         DC    B'&IDAPORE'              POST/RESPOND FLAGS      X04SVHS 14050000
         DC    B'&IDACON1'              DATA CONTROL            X04SVHS 14100000
         DC    B'&IDACON2'              DATA CONTROL            X04SVHS 14150000
         DC    B'&IDACON3'              SESSION CONTROL         X04SVHS 14200000
         AGO   .ACB                                             X3004BH 14250000
.*                                                              X3004BH 14300000
.* PROCESSING FOR VTAM FIELDS WHICH START AT OFFSET 60          X3004BH 14350000
.*                                                              X3004BH 14400000
.OVLY60  ANOP                                                   X3004BH 14450000
         DC    AL2(&OBSQVAL)            STSN OUTBOUND SEQ NO    X3004BH 14500000
         DC    AL2(&IBSQVAL)            STSN INBOUND SEQ NO     X3004BH 14550000
         DC    B'&IDAOBQC'              STSN OUTBOUND ACTION CODES      14600000
.*                                                              X04SVHS 14650000
         DC    B'&IDAIBQC'              STSN INBOUND ACTION CODES       14700000
.*                                                              X04SVHS 14750000
         DC    AL2(&SEQNO)              SEQUENCE NUMBER         X3004BH 14800000
         AGO   .TSTBRCH                                         X3004BH 14850000
         MEND                                                           14900000
