         MACRO                                                          00900013
&NAME    LERB  &NLINES,&OP2                                             01800013
.*130300400200,00540270                                            000A 02700013
         LCLA  &LOOP,&N,&M ARITHMETIC COUNTERS AND INDICES              03600013
         LCLA  &DEFAULT(4) ARITHMETIC DEFAULT VALUES OF THRESHOLD       04500013
         LCLA  &THRESH(4) ARITHMETIC CURRENT VALUES OF THRESHOLD        05400013
         LCLC  &LC       CHARACTER SCRATCH VARIABLE                     06300013
         AIF   (T'&NAME NE 'O').NAMEIN                                  07200013
         MNOTE 12,'***  IHB076  MACRO NAME FIELD BLANK-NAME REQUIRED'   08100013
         MEXIT                                                          09000013
.*                                                                      09900013
.NAMEIN  AIF   (N'&SYSLIST GT 0).NSLOK                                  10800013
         MNOTE 12,'***  IHB004  REQUIRED OPERAND(S) NOT SPECIFIED'      11700013
         MEXIT                                                          12600013
.*                                                                      13500013
.NSLOK   AIF   (T'&NLINES EQ 'N').NLTOK                                 14400013
&LC      SETC  T'&NLINES PICK UP TYPE FOR MNOTE                         15300013
         MNOTE 12,'***  IHB002  INVALID NLINES OPERAND SPECIFIED-&NLINEX16200013
               S'                                                  000A 17100013
         MEXIT                                                          18000013
.*                                                                      18900013
.NLTOK   ANOP                                                           19800013
&LOOP    SETA  &NLINES CONVERT ABSEXP TO VALUE                          20700013
         AIF   (&LOOP GE 1 AND &LOOP LE 255).LVOK                       21600016
         MNOTE 12,'***  IHB002  INVALID NLINES OPERAND SPECIFIED-&NLINEX22500013
               S'                                                  000A 23400013
         MEXIT                                                          24300013
.LVOK    ANOP                                                           25200013
&DEFAULT(1) SETA 255                                                    26100013
&DEFAULT(2) SETA 10                                                     27000013
&DEFAULT(3) SETA 5                                                      27900013
&DEFAULT(4) SETA 5                                                      28800013
&THRESH(1) SETA &DEFAULT(1)                                             29700013
&THRESH(2) SETA &DEFAULT(2)                                             30600013
&THRESH(3) SETA &DEFAULT(3)                                             31500013
&THRESH(4) SETA &DEFAULT(4)                                             32400013
&N       SETA  1 PRIME OUTER SYSLIST INDEX                              33300013
&NAME    DC    0F'0' ALIGN TABLE AND ATTACH NAME                        34200013
         SPACE 1                                                        35100013
.*                                                                      36000013
.* HEAD OF OUTER SYSLIST LOOP                                           36900013
.*                                                                      37800013
.OUTLOOP ANOP                                                           38700013
&N       SETA  &N+1 INCREMENT OUTER INDEX                               39600013
&M       SETA  0    CLEAR INNER INDEX                                   40500013
.*                                                                      41400013
.* HEAD OF INNER SYSLIST LOOP                                           42300013
.*                                                                      43200013
.INLOOP  ANOP                                                           44100013
&M       SETA  &M+1 INCREMENT INNER INDEX                               45000013
         AIF   (T'&SYSLIST(&N,&M) EQ 'O').TYPO                          45900013
         AIF   (T'&SYSLIST(&N,&M) EQ 'N').TYPN                          46800013
&LC      SETC  T'&SYSLIST(&N,&M) PICK UP TYPE FOR MNOTE                 47700013
         MNOTE 12,'***  IHB002  INVALID OPERAND(&N,&M) OPERAND SPECIFIEX48600013
               D-&SYSLIST(&N,&M)'                                       49500013
         AGO   .SELDFLT                                                 50400013
.*                                                                      51300013
.TYPO    AIF   (&THRESH(&M) LE &THRESH(1)).TESTM                        52200013
         MNOTE 12,'***  IHB002  INVALID UNCODED OPERAND(&N,&M) OPERAND X53100013
               SPECIFIED-&THRESH(&M)'                                   54000013
         AGO   .SELDFLT                                                 54900013
.*                                                                      55800013
.TYPN    ANOP                                                           56700013
&THRESH(&M) SETA &SYSLIST(&N,&M) CONVERT SUB-OPERAND TO VALUE           57600013
         AIF   (&THRESH(&M) GE 1 AND &THRESH(&M) LE 255).VALOK          58500013
         MNOTE 12,'***  IHB002  INVALID OPERAND(&N,&M) OPERAND SPECIFIEX59400013
               D-&SYSLIST(&N,&M)'                                       60300013
         AGO   .CKMEQ1                                                  61200013
.*                                                                      62100013
.VALOK   AIF   (&THRESH(&M) LE &THRESH(1)).TESTM                        63000013
         MNOTE 12,'***  IHB002  INVALID OPERAND(&N,&M) OPERAND SPECIFIEX63900013
               D-&THRESH(&M)'                                           64800013
         AGO   .SELDFLT                                                 65700013
.*                                                                      66600013
.CKMEQ1  AIF   (&M EQ 1).DFLT                                           67500013
.SELDFLT AIF   (&DEFAULT(&M) LE &THRESH(1)).DFLT                        68400013
         MNOTE *,'CURRENT TRNSMCT=&THRESH(1) USED.'                     69300013
&THRESH(&M) SETA &THRESH(1)                                             70200013
         AGO   .TESTM                                                   71100013
.*                                                                      72000013
.DFLT    MNOTE *,'DEFAULT=&DEFAULT(&M) USED.'                           72900013
&THRESH(&M) SETA &DEFAULT(&M)                                           73800013
.*                                                                      74700013
.TESTM   AIF   (&M LT 4).INLOOP GO BACK TO CHECK NEXT SUB-OPERAND       75600013
*        ACCUMULATORS                                                   76500013
         DC    F'0' TRANSMISSIONS                                       77400013
         DC    H'0' DATA CHECKS                                         78300013
         DC    H'0' INTERVENTIONS                                       79200013
         DC    H'0' NONTEXT TIMEOUTS                                    80100013
*        COUNTERS                                                       81000013
         DC    X'0' TRANSMISSIONS                                       81900013
         DC    X'0' DATA CHECKS                                         82800013
         DC    X'0' INTERVENTIONS                                       83700013
         DC    X'0' NONTEXT TIMEOUTS                                    84600013
*        THRESHOLDS                                                     85500013
         DC    YL1(&THRESH(1)) TRANSMISSIONS                            86400013
         DC    YL1(&THRESH(2)) DATA CHECKS                              87300013
         DC    YL1(&THRESH(3)) INTERVENTIONS                            88200013
         DC    YL1(&THRESH(4)) NONTEXT TIMEOUTS                         89100013
*        RESERVED                                                       90000013
         DC    XL2'0'                                                   90900013
         SPACE 1                                                        91800013
.*                                                                      92700013
&LOOP    SETA  &LOOP-1                                                  93600013
         AIF   (&LOOP GT 0).OUTLOOP                                     94500013
         MEND                                                           95400013
