*%/*                                                                    03050002
         MACRO                                                          03100002
&NAME    LINK  &EP=,&EPLOC=,&DE=,&PARAM=,&DCB=,&VL=,&ID=,&SF=I,        X06000000
               &MF=I,&ERRET=,&HIARCHY=                                  09000000
         GBLB  &IHBSWA,&IHBSWB                                          12000000
&IHBSWA  SETB  ('&VL' EQ '1')                                           15000000
&IHBSWB  SETB  ('&SF' EQ '(E,(15))')                                    18000000
         AIF   ('&MF' EQ 'L').E1                                        21000000
         AIF   ('&SF' EQ 'L' AND '&MF&PARAM&ID&VL' NE 'I').E2           24000000
         AIF   ('&NAME' EQ '' OR '&SF' EQ 'L').CONTA                    27000000
&NAME    DS    0H                                                       30000000
.CONTA   AIF   ('&PARAM' EQ '' AND '&MF(1)' NE 'E').CONTB               33000000
         IHBOPLST  ,&PARAM,MF=&MF                                       36000000
.CONTB   ANOP                                                           39000000
&NAME    IHBINNRB &EP,&EPLOC,&DE,&DCB,ERRET=&ERRET,SF=&SF               42000000
         AIF   ('&SF' EQ 'L').END                                       45000000
         SVC   6                   ISSUE LINK SVC                       48000000
         AIF   ('&ID' EQ '').END                                        51000000
         DC    X'4700'             NOP INSTRUCTION WITH                 54000000
         DC    AL2(&ID)            ID IN LAST TWO BYTES                 57000000
         MEXIT                                                          60000000
.E1      IHBERMAC 84                                                    63000000
         MEXIT                                                          66000000
.E2      IHBERMAC 75                                                    69000000
.END     MEND                                                           72000000
**/                                                                     72050002
*LINK:   MACRO                                                          72100002
*        KEYS(MF,EP,DE,DCB,ID,SF,PARAM,ERRET,VL);                       72150002
*        ANS('?'||MACLABEL||'LINKP '||MACLIST||MACKEYS||';');           72200002
*%END;                                                                  72250002
