*%/*                                                                    00060002
         MACRO                                                          00070002
&NAME    LOAD  &EP=,&EPLOC=,&DE=,&DCB=,&ERRET=,&HIARCHY=,&RELATED=      00100002
         LCLB  &RET                                                     00150002
&RET     SETB  ('&ERRET' NE '')                                         00200002
.NORC    AIF   ('&EP' NE '').PROCEP BRANCH IF EP PRESENT                00250002
         AIF   ('&EPLOC' EQ '' AND '&DE' EQ '').E1                      00300002
         AIF   ('&EPLOC' NE '' AND '&DE' NE '').E2                      00350002
&NAME    CNOP  0,4                                                      00400002
         AIF   ('&DE&EPLOC'(1,1) NE '(').RXTYPE                         00450002
         AIF   ('&DE(1)&EPLOC(1)' NE '0').NOTZER                        00500002
         AGO   .EPHERE                                                  00550002
.NOTZER  ANOP                                                           00600002
         LA    0,0(0,&EPLOC(1)&DE(1))  LOAD PARAMETER INTO REG 0 YM1995 00650002
         AGO   .EPHERE                                                  00700002
.RXTYPE  ANOP                                                           00750002
         LA    0,&EPLOC&DE        LOAD PARAMETER INTO REG 0             00800002
.EPHERE  AIF   ('&DCB' NE '').DCB                                       00850002
.EPOK    AIF   (&RET).FIN                                               00900002
.SRONE   ANOP                                                           00950002
         SR    1,1                SHOW NO DCB PRESENT                   01000002
.SVC     AIF   ('&DE' EQ '').TERM                                       01050002
         LNR   0,0                LOAD NEGATIVE REG 0 TO INDICATE DE    01100002
.TERM    ANOP                                                           01150002
         SVC   8                                                        01200002
         AIF   ('&ERRET' EQ '').END                                     01250002
         LTR   15,15              RETURN CODE TEST                      01300002
         AIF   ('&ERRET'(1,1) EQ '(').REGRET                            01350002
         BNZ   &ERRET           GO TO ERROR ROUTINE                     01400002
         AGO   .END                                                     01450002
.REGRET  ANOP                                                           01500002
         BCR   7,&ERRET(1)        GO TO ERROR ROUTINE                   01550002
         MEXIT                                                          01600002
.FIN     ANOP                                                           01650002
         L     1,*+8              NO DCB, RETURN CODE REQUESTED         01700002
.TESTO   ANOP                                                           01750002
         B     *+8                BRANCH AROUND CONSTANT                01800002
         DC    X'80000000'        RETURN CODE REQUESTED                 01850002
         AGO   .SVC                                                     01900002
.DCB     AIF   ('&DCB'(1,1) NE '(').RXSPEC                              01950002
         LA    1,0(0,&DCB(1))     LOAD ADDR. OF DCB INTO REG 1   YM1995 02000002
         AGO   .TESTRC                                                  02050002
.RXSPEC  ANOP                                                           02100002
         LA    1,&DCB             LOAD ADDR OF DCB INTO REG 1           02150002
.TESTRC  AIF   (NOT &RET).SVC                                           02200002
         O     1,*+8              INSERT RETURN CODE REQUEST INDICATOR  02250002
         AGO   .TESTO                                                   02300002
.PROCEP  AIF   ('&EPLOC' NE '' OR '&DE' NE '').E2                       02350002
         AIF   ('&EP'(1,1) EQ '(').E4                                   02400002
&NAME    CNOP  0,4                                                      02450002
         AIF   (&RET).RCEPTST                                           02500002
         LA    0,*+8              LOAD PARAMETER INTO REGISTER ZERO     02550002
         B     *+12               BRANCH AROUND CONSTANT(S)             02600002
         DC    CL8'&EP'           ENTRY POINT NAME                      02650002
         AIF   ('&DCB' NE '').NEXTON                                    02700002
         AGO   .SRONE                                                   02750002
.NEXT    ANOP                                                           02800002
         LA    1,0(0,&DCB(1))     LOAD ADDR. OF DCB INTO REG 1   YM1995 02850002
         AGO   .SVC                                                     02900002
.NEXTON  AIF   ('&DCB'(1,1) EQ '(').NEXT                                02950002
         LA    1,&DCB             LOAD ADDR. OF DCB INTO REG 1          03000002
         AGO   .SVC                                                     03050002
.RCEPTST AIF   ('&DCB' NE '').PREDCB                                    03100002
         L     1,*+12             NO DCB SPECIFIED,RETURN CODE REQUEST  03150002
.COMPL   ANOP                                                           03200002
         LA    0,*+12             LOAD PARAMETER INTO REGISTER 0        03250002
         B     *+16               BRANCH AROUND CONSTANT(S)             03300002
         DC    X'80000000'        RETURN CODE REQUESTED                 03350002
         DC    CL8'&EP'           ENTRY POINT NAME                      03400002
         AGO   .TERM                                                    03450002
.PREDCB  AIF   ('&DCB'(1,1) EQ '(').NEXT1                               03500002
         LA    1,&DCB             LOAD DCB ADDRESS IN REGISTER 1        03550002
         O     1,*+12             INDICATE RETURN CODE REQUESTED        03600002
         AGO   .COMPL                                                   03650002
.NEXT1   ANOP                                                           03700002
         LA    1,0(0,&DCB(1))     LOAD DCB ADDRESS IN REGISTER 1 YM1995 03750002
         O     1,*+12             INDICATE RETURN CODE REQUESTED        03800002
         AGO   .COMPL                                                   03850002
.E1      IHBERMAC      31                                               03900002
         MEXIT                                                          03950002
.E2      IHBERMAC      88                                               04000002
         MEXIT                                                          04050002
.E4      IHBERMAC      26                                               04100002
.END     MEND                                                           04150002
**/                                                                     04160002
*LOAD:   MACRO                                                          04200002
*        KEYS(EP,DE,DCB,ERRET,RELATED);                                 04250002
*        ANS('?'||MACLABEL||'LOADP '||MACLIST||MACKEYS||';');           04300002
*%END;                                                                  04350002
