         MACRO                                                          02000020
&NAME    LOG   &BLK                                                     04000020
         GBLA  &IEDQZE(64)                                              06000020
         GBLB  &IEDQZA(64)                                              08000020
         LCLB  &NOGO                                                    09000020
.*             VERSION DATED SEPTEMBER 8, 1970                          10000020
         SPACE                                                          12000020
         AIF   (&IEDQZA(1) OR &IEDQZA(2)).OP                            14000020
         MNOTE 12,'***  IHB070  SEQUENCE ERROR-MUST FOLLOW INHDR, INBUF*16000020
               , INMSG, OUTHDR, OUTBUF OR OUTMSG MACRO'                 18000020
&NOGO    SETB  1                                                        20000020
.OP      AIF   ('&BLK' NE '').CHECK                                     22000020
         MNOTE 12,'***  IHB004  REQUIRED OPERAND NOT SPECIFIED'         24000020
&NOGO    SETB  1                                                        25000020
.CHECK   AIF   (&NOGO).MEND                                             26000020
         AIF   (NOT &IEDQZA(5)).SEG                                     27000020
         IEDQVCON 5,IEDQBY                                              30000020
.PARM    AIF   (&IEDQZA(19)).SKP                                        32000020
         ORG   IEDBZ                                                    34000020
         DC    V(IEDQBZ)                                                36000020
         ORG                                                            38000020
&IEDQZA(19)  SETB  1                                                    40000020
.SKP     ANOP                                                           42000020
&NAME    DC    AL1(&IEDQZE(5)+3),AL1(8),AL2(0),A(&BLK)                  44000020
         AIF   (NOT &IEDQZA(1)).MEND                                    46000020
&IEDQZA(18) SETB 1                                                      48000020
         AGO   .MEND                                                    50000020
.SEG     IEDQVCON 39,IEDQBX                                             52000020
         CNOP  0,4                                                      54000020
&NAME    BAL   1,*+8                                                    56000020
         DC    AL1(&IEDQZE(39)),AL3(&BLK)                               58000020
         L     15,IEDUI .               TO LOG SEGMENT RTN              60000020
         BALR  14,15                                                    62000020
.MEND    SPACE 2                                                        64000020
         MEND                                                           66000020
