         MACRO                                                          01000020
&NAME    LOGON &SCAN=12                                         SA67157 02000054
.*                                                               S22029 02500022
         GBLA  &IEDQZE(64)                                              03000020
         GBLB  &IEDQZA(64)                                              04000020
         GBLC  &IEDQZG,&IEDQZH,&IEDQZI                           S22029 05000022
         LCLA  &T,&BASE,&INDX                                    S22029 05500022
         LCLA  &IEDLNDX                                          S22029 06000022
         LCLA  &SCANO                                           SA67157 06500054
         LCLB  &NOGO                                             S22029 07000022
.*A690000                                                        S22029 08000022
.*C020000,050000-090000,110000,150000-170000,190000,520000       S22029 08300022
.*C640000,650000                                                 S22029 08600022
.*D080000,130000-140000,530000,680000                            S22029 09000022
.*A060000,630000                                                SA67157 09500054
.*C020000,644000,650000                                         SA67157 09600054
.*C690400                                                      @OZ27439 09600182
.*C160000-170000                                               @OZ36610 09600282
.*       VERSION DATED OCTOBER 8, 1973                          SA67157 09700054
.*       IEDQZG CONTAINS NAME OF LAST STARTMH MACRO                     10000020
.*       &IEDQZI CONTAINS ADDR OF END OF LOGON MACRO EXPANSION   S22029 11000022
         SPACE                                                          12000020
         AIF   (&IEDQZA(51)).SEQCHK                              S22029 15000022
         MNOTE 12,'***  IHB070  MUST FOLLOW INTRO MACRO WITH ENVIRON=TSX16000082
               O OR MIXED'                                     @OZ36610 16050082
&NOGO    SETB  1                                                        18000020
.SEQCHK  AIF   (&IEDQZA(3)).NOGOCHK                              S22029 19000022
         AIF   (&IEDQZA(14)).NOGOCHK                             S22029 19500022
         MNOTE 12,'*** IHB070 SEQUENCE ERROR-MUST FOLLOW INHDR OR INBLOX20000022
               CK MACRO'                                         S22029 20500022
&NOGO    SETB  1                                                        21000020
.NOGOCHK ANOP                                                    S22029 52000022
         AIF   (&NOGO).MEND                                             57000020
.VCON    IEDQVCON 35,IEDAYL                                             61000020
&IEDLNDX SETA   &IEDQZE(35)                                             62000020
.CNOP    CNOP  0,4                                                      63000020
         IEDQMASK &SCAN,1                                       SA67157 63090054
         AIF   (&IEDQZA(24)).SCANERR                            SA67157 63180054
         AIF   ('&SCAN'(1,1) EQ 'X' OR &SCAN LT 0).SCANERR      SA67157 63270054
&SCANO   SETA  &SCAN                                            SA67157 63360054
         AGO   .SCANSET                                         SA67157 63450054
.SCANERR ANOP                                                   SA67157 63540054
         SPACE 1                                                SA67157 63630054
         MNOTE 12,'IHB303 INVALID OPERAND SCAN, 12 ASSUMED'     SA67157 63720054
&SCANO   SETA  12                                               SA67157 63810054
.SCANSET ANOP                                                   SA67157 63900054
&NAME    BAL   1,*+12 . BRANCH AROUND PARMLIST                   S22029 64000022
         AIF   (&IEDQZA(14)).INBLOCK                             S22029 64200022
         DC    AL1(&IEDLNDX),AL1(8),AL1(&SCANO),AL1(0)          SA67157 64400054
         AGO   .NOTNBLK                                          S22029 64600022
.INBLOCK ANOP                                                    S22029 64800022
         DC    AL1(&IEDLNDX),AL1(8),AL1(&SCANO),AL1(0)          SA67157 65000054
.NOTNBLK ANOP                                                    S22029 65200022
         DC    AL1(0),AL3(&IEDQZG)                               S22029 66000022
         L     15,IEDUI .                                        S22029 67000022
         BALR  14,15                                                    69000020
&IEDQZI  SETC  'IEDL&SYSNDX'                                   @OZ27439 69040082
&IEDQZI  EQU   *   END OF THIS LOGON MACRO EXPANSION             S22029 69080022
         ORG   &IEDQZG+5                                         S22029 69120022
         DC    AL3(&IEDQZI)   ADDRESS OF END OF LOGON MACRO      S22029 69160022
         ORG   &IEDQZI                                           S22029 69200022
.* THE FOLLOWING REGENRATES ADDRESSABILITY FOR ADDITIONAL BASE   S22029 69240022
.* REGISTERS REQUESTED BY &BREG= PARAM ON STARTMH MACRO.  THIS   S22029 69280022
.* IS NECESSARY DUE TO CROSS MHANDLER SHIFT OF LOGON MSG.        S22029 69320022
         AIF   ('&IEDQZH' EQ '').NOBREGS                         S22029 69360022
&T       SETA  &IEDQZH                                           S22029 69400022
&BASE    SETA  11                                                S22029 69440022
&INDX    SETA  12                                                S22029 69480022
.LOOP    ANOP                                                    S22029 69520022
         AIF   (&T EQ 1).NOBREGS                                 S22029 69560022
         LA    &BASE,0(2,&INDX)                                  S22029 69600022
&T       SETA  &T-1                                              S22029 69640022
&BASE    SETA  &BASE-1                                           S22029 69680022
&INDX    SETA  &INDX-1                                           S22029 69720022
         AGO   .LOOP                                             S22029 69760022
.NOBREGS ANOP                                                    S22029 69800022
.MEND    SPACE 2                                                        70000020
         MEND                                                           71000020
