         MACRO                                                          01000010
&NAME    LOGTYPE  &DCB,&BUFSIZE=,&QUEUES=,                             X01001010
               &QS=(DN,DR,MO,MR,MN,34,18,66,82,98)                      01002010
         GBLA  &IEDQAR(64)                                              01003010
         GBLB  &IEDQZA(64),&IEDQNO                                      01004010
         GBLB  &IEDQFL(16)                                       S22025 01005010
         GBLC  &IEDQSV(8)                                               01006010
         LCLA  &A,&B                                                    01007010
         LCLB  &NO                                                      01008010
.*A455000,525000,532000-538000                                   X01004 01009010
.*C500000                                                        X01004 01010010
.*D330000,460000-490000                                          X01004 01011010
.*C480000                                                        S21101 08500020
.*C200000,210000                                                SA56629 08560022
.*A240000                                                       SA56629 08620022
&IEDQFL(9) SETB 0                                                S22025 08700022
         AIF   (&IEDQAR(10) EQ 0).C0                                    09000020
         IEDQGCH  5                                                     10000020
.C0      AIF   (&IEDQZA(55)).C1                                         11000020
         MNOTE 12,'*** IHB070 SEQUENCE ERROR- MUST FOLLOW TTABLE MACRO' 12000020
&NO      SETB  1                                                        13000020
.C1      AIF   ('&NAME' NE '').C2                                       14000020
         MNOTE 12,'*** IHB076 MACRO NAME FIELD BLANK- NAME REQUIRED'    15000020
&NO      SETB  1                                                        16000020
.C2      AIF   ('&IEDQSV(5)' NE '&NAME').C2A                            17000020
         MNOTE 12,'LOGTYPE INVALID AS LAST TEMINAL TABLE ENTRY'         18000020
         MEXIT                                                          19000020
.C2A     AIF   ('&DCB' NE '' AND '&QUEUES' NE '' AND                   C20000022
               '&BUFSIZE' NE '').C2B                            SA56629 21000022
         MNOTE 12,'*** IHB004 REQUIRED OPERAND(S) NOT SPECIFIED'        22000020
         MEXIT                                                          23000020
.IN      MNOTE 12,'*** IHB002 QUEUES OPERAND SPECIFIED &QUEUES'         24000020
.C2B     ANOP                                                   SA56629 24100022
         AIF   (('&DCB'(1,1) GE 'A' AND '&DCB'(1,1) LE 'Z') OR         C24200022
               '&DCB'(1,1) EQ '$' OR '&DCB'(1,1) EQ '@' OR             C24300022
               '&DCB'(1,1) EQ '#').C2D                          SA56629 24400022
.C2C     MNOTE 12,'*** IHB002 INVALID DCB OPERAND-&DCB'         SA56629 24500022
         MEXIT                                                  SA56629 24600022
.C2D     ANOP                                                   SA56629 24700022
         AIF   (K'&DCB LT 9).C3                                 SA56629 24800022
         AGO   .C2C                                             SA56629 24900022
&NO      SETB  1                                                        25000020
         AGO   .ND                                                      26000020
.C3      AIF   (&A GT 5).IN                                             27000020
&A       SETA  &A+1                                                     28000020
         AIF   ('&QUEUES' NE '&QS(&A)').C3                              29000020
&A       SETA  &QS(&A+5)                                                30000020
BUFSIZE  IEDQCKO &BUFSIZE,,1,R=(36,65535)                               31000020
         AIF   (&IEDQNO OR &NO).ND                                      32000020
&IEDQZA(17) SETB 1                                               S22029 33500022
         IEDQTQ *+35,&A,0,0,0,ST=16,LG=AL3(*-1)                         34000020
         DC    2A(0),AL1(0),VL3(IEDQBZ01),10A(0),A(&DCB),A(*-56),2A(0)  35000020
         DC    AL2(0),X'81',5A(0),A(*+4),AL1(0),AL3(&IEDQSV(2)),20A(0)  36000020
&IEDQSV(6) SETC '&DCB'                                                  37000020
&IEDQSV(8) SETC '0'                                                     38000020
&NAME    IEDQTT  X=1                                                    39000020
         DC    BL1'01100000',AL3(&IEDQSV(2)),2H'01'                     40000020
&A       SETA  82-&IEDQAR(1)                                            41000020
         DC    AL2((&IEDQSV(8)-IEDQTNT-&A)/&IEDQAR(1)),X'8000'          42000020
         DC    XL5'0',AL1(2),AL2(&BUFSIZE)                              43000020
&IEDQZA(54)  SETB  1                                                    44000020
         AIF   ('&IEDQSV(1)' NE '&IEDQSV(5)').ND                        45000020
IEDQTRME DC    AL2(&IEDQAR(11)),AL2((&IEDQAR(14)+7)/8)                  45500010
         AIF   (&IEDQAR(3) EQ 0).NDE                                    50000010
IEDQOPT  CSECT                                                          51000020
IEDQOPTN DC    AL2(&IEDQAR(15))                                         52000020
.NDE     ANOP                                                           52500010
&IEDQSV(4)  CSECT                                                       53000020
         AIF   (&IEDQAR(33) EQ 0 AND &IEDQAR(34) EQ 0).ND               53200010
         ORG   IEDNADDR                                                 53400010
         DC    A(&IEDQAR(34)*4+1),A(&IEDQAR(33)*4+3) .           X01004 53600010
         ORG                                                            53800010
.ND      SPACE 2                                                        54000020
&IEDQNO  SETB  0                                                        55000020
&IEDQZA(17) SETB 0                                               S22029 55500022
         MEND                                                           56000020
