         MACRO                                                          00020000
&NAME    LOPEN &DECB                                                    00040000
         CNOP  0,4                                                 000C 00060015
&NAME    BAL   15,*+8                                              000C 00080015
         DC    V(IECTLOPN)                                              00100000
         AIF   ('&DECB'(1,1) NE '(').LOPEN1                             00120000
         AIF   ('&DECB'(K'&DECB,1) NE ')').ERR1                         00140000
        AIF   ('&DECB'(2,K'&DECB-2) EQ '1').LOPEN2                      00160000
         LR    1,&DECB                                                  00180000
         AGO   .LOPEN2                                                  00200000
.LOPEN1  LA    1,&DECB                                                  00220000
.LOPEN2  L     15,0(15)                                                 00240000
         BALR  14,15                                                    00260000
         MEXIT                                                          00280000
.ERR1    MNOTE 12,'***  IHB078  DECB OPERAND REGISTER NOTATION INVALID-X00300000
               &DECB'                                                   00320000
         MEND                                                           00340000
