         MACRO                                                          03000022
&NAME    MCOUNT &DCB=                                                   06000022
         GBLB  &IEDQB1                                                  09000022
         AIF   ('&DCB' EQ '').ERR1                                      12000022
         AIF   (N'&SYSLIST GT 1).ERR2                                   15000022
         CNOP  0,4                                                      18000022
&NAME    DS    0F                                                       21000022
         AIF   (&IEDQB1).NOVCON                                         24000022
         B     *+8                     BRANCH AROUND ADDRESS            27000022
IEDQMCT  DC    V(IEDQB1) .              ADDRESS OF MCOUNT ROUTINE       30000022
&IEDQB1  SETB  1                                                        33000022
.NOVCON  ANOP                                                           36000022
         AIF   ('&DCB'(1,1) EQ '(').REGS                                39000022
         LA    1,&DCB                                                   42000022
         AGO   .GOOD                                                    45000022
.REGS    ANOP                                                           48000022
         LR    1,&DCB(1)                                                51000022
.GOOD    ANOP                                                           54000022
         L     15,IEDQMCT                                               57000022
         BALR  14,15                                                    60000022
         MEXIT                                                          63000022
.ERR1    MNOTE 12,'*** IHB004 REQUIRED OPERAND NOT SPECIFIED'           66000022
         MEXIT                                                          69000022
.ERR2    MNOTE 12,'*** IHB004 EXCESSIVE OPERANDS SPECIFIED'             72000022
         MEND                                                           75000022
