         MACRO                                                          02000020
&NAME    MCPCLOSE &CODE,&PASSWRD=                                       04000020
         AIF   ('&PASSWRD' EQ '').NOPASS                                06000020
         AIF   (K'&PASSWRD LT 9).OK                                     08000020
         MNOTE 12,'*** IHB002 INVALID PASSWORD OPERAND SPECIFIED'       10000020
         MEXIT                                                          12000020
.ERRMSG  ANOP                                                           14000020
         MNOTE 12,'*** IHB002 INVALID KEYWORD OPERAND SPECIFIED'        16000020
         MEXIT                                                          18000020
.NOPASS  ANOP                                                           20000020
&NAME    DS    0H                                                       22000020
         SR    0,0 .                    INDICATE NO PASSWORD            24000020
         AGO   .PARM                                                    26000020
.OK      ANOP                                                           28000020
&NAME    DS    0H                                                       30000020
         BAL   0,*+12 .                 SET ADDR OF PASSWORD IN R0      32000020
         DC    CL8'&PASSWRD' .          UNSCRAMBLED PASSWORD            34000020
.PARM    ANOP                                                           36000020
         CNOP  0,4                                                      38000020
         BAL   1,*+44 .                 SET CIB ADDR IN PARM REG        40000020
IEDQ&SYSNDX DS 0F .                     COMMAND INPUT BUFFER            42000020
         DC    F'0' .                   OPERATOR CONTROL QCB ADDR       44000020
         DC    XL1'E0' .                CIB QUEUING PRIORITY            46000020
         DC    XL3'00' .                LINK FIELD                      48000020
         AIF   ('&CODE' EQ '').DEFAULT                                  50000020
         AIF   ('&CODE' EQ 'FLUSH').DEFAULT                             52000020
         AIF   ('&CODE' NE 'QUICK').ERRMSG                              54000020
         DC    XL1'10' .                VERB CODE FOR QUICK CLOSE       56000020
         AGO   .NEXT                                                    58000020
.DEFAULT ANOP                                                           60000020
         DC    XL1'11' .                VERB CODE FOR FLUSH CLOSE       62000020
.NEXT    ANOP                                                           64000020
         DC    XL1'1C' .                CIB LENGTH                      66000020
         DC    XL1'00' .                RELATIVE LINE NUMBER            68000020
         DC    XL1'00' .                COMPLETION CODE                 70000020
         DC    A(IEDQ&SYSNDX+32) .      ECB ADDRESS                     72000020
         DC    XL8'00' .                TERMINAL NAME                   74000020
         DC    XL4'00' .                WORKAREA ADDRESS                76000020
         DC    A(IEDQ&SYSNDX) .         ADDRESS OF CIB                  78000020
         DC    F'0' .                   PCB WORKAREA/ECB                80000020
         DC    F'0' .                   ADDRESS OF CIB LENGTH           82000020
         LINK  EP=IEDQET                                                84000020
         MEND                                                           86000020
