          MACRO                                                         00100000
&NAME     MODEEND                                                       00150000
          GBLB  &ERRCK                                                  00200000
          GBLA  &ENTRYCT                                                00210000
          AIF   ('&ERRCK' EQ '1').MODEEND                               00250000
          MNOTE 0,'MODETAB MACRO NEVER ISSUED - NO COUNT'               00300000
          AGO   .MODEND                                                 00350000
.MODEEND  ANOP                                                          00400000
          ORG   *-((&ENTRYCT*44)+6)                                     00500000
          DC    AL2(&ENTRYCT)                                           00510000
          ORG   *+((&ENTRYCT*44)+4)                                     00550000
.MODEND   ANOP                                                          00600000
&ENTRYCT  SETA  0                                                       00660000
&ERRCK    SETB  0                                                       00700000
          MEND                                                          00800000
