          MACRO                                                         00050000
&NAME     MODETAB                                                       00100000
          GBLB  &ERRCK                                                  00150000
          GBLA  &ENTRYCT                                                00150400
          AIF   ('&ERRCK' EQ '0').MODEHDR                               00152000
          MNOTE 0,'MODETAB MACRO ISSUED AGAIN - DISREGARDED'            00160000
          AGO   .MODEND                                                 00170000
.MODEHDR  ANOP                                                          00210000
&NAME     CSECT                                                         00220000
          DC    X'C0'                  CONTROL BLOCK ID                 00250000
          DC    X'00'                  RESERVED                         00300000
          DC    XL2'00'                NO. OF TABLE ENTERIES            00350000
          DC    XL4'00'                RESERVED                         00400000
&ENTRYCT  SETA  0                                                       00410000
&ERRCK    SETB  1                                                       00420000
.MODEND   ANOP                                                          00430000
          MEND                                                          00450000
