         MACRO                                                          01000020
&NAME    MRELEASE &TERM,&PASSWRD=                                       02000020
         AIF   ('&TERM' NE '').GO                                       03000020
         MNOTE 12,'*** IHB001  TERMNAME OPERAND REQ''D-NOT SPECIFIED'   04000020
         MEXIT                                                          05000020
.GO      ANOP                                                           06000020
         AIF   (K'&TERM LT 9).OK2                                       07000020
         AIF   ('&TERM'(1,1) EQ '(').OK2                                08000020
         MNOTE 12,'*** IHB002 INVALID TERMNAME OPERAND SPECIFIED'       09000020
         MEXIT                                                          10000020
.OK2     ANOP                                                           11000020
&NAME    DS    0H                                                       12000020
         AIF   ('&TERM'(1,1) NE '(').PASS                               13000020
.REG     ANOP                                                           14000020
         AIF   ('&TERM' EQ '(1)').SETCIB                                15000020
         LR    1,&TERM(1) .             ADDRESS OF TERMNAME             16000020
.SETCIB  ANOP                                                           17000020
         MVC   IEDQ&SYSNDX+16(8),0(1) . MOVE TERMNAME INTO CIB          18000020
.PASS    ANOP                                                           19000020
         AIF   ('&PASSWRD' EQ '').NOPASS                                20000020
         AIF   (K'&PASSWRD LT 9).OK4                                    21000020
         MNOTE 12,'*** IHB002 INVALID PASSWORD OPERAND SPECIFIED'       22000020
         MEXIT                                                          23000020
.OK4     ANOP                                                           24000020
         BAL   0,*+12 .                 ADDRESS OF PASSWORD             25000020
         DC    CL8'&PASSWRD' .          UNSCRAMBLED PASSWORD            26000020
         AGO   .LINK                                                    27000020
.NOPASS  ANOP                                                           28000020
         SR    0,0 .                    INDICATE NO PASSWORD            29000020
.LINK    ANOP                                                           30000020
         CNOP  0,4                                                      31000020
         BAL   1,*+44 .                 SET CIB ADDR IN PARM REG        32000020
IEDQ&SYSNDX DS 0F .                     COMMAND INPUT BUFFER            33000020
         DC    F'0' .                   OPERATOR CONTROL QCB ADDR       34000020
         DC    XL1'E0' .                CIB QUEUING PRIORITY            35000020
         DC    XL3'00' .                LINK FIELD                      36000020
         DC    XL1'87' .                VERB CODE FOR LINE RELEASE      37000020
         DC    XL1'1C' .                CIB LENGTH                      38000020
         DC    XL1'00' .                RELATIVE LINE NUMBER            39000020
         DC    XL1'00' .                COMPLETION CODE                 40000020
         DC    A(IEDQ&SYSNDX+32) .      ECB ADDRESS                     41000020
         AIF   ('&TERM'(1,1) EQ '(').ZERO                               42000020
         DC    CL8'&TERM' .             TERMINAL NAME                   43000020
         AGO   .OK5                                                     44000020
.ZERO    ANOP                                                           45000020
         DC    XL8'00' .                TERMINAL NAME                   46000020
.OK5     ANOP                                                           47000020
         DC    XL4'00' .                WORKAREA ADDRESS                48000020
         DC    A(IEDQ&SYSNDX) .         ADDRESS OF CIB                  49000020
         DC    F'0' .                   PCB WORKAREA/ECB                50000020
         DC    F'0' .                   ADDRESS OF CIB LENGTH           51000020
         LINK  EP=IEDQET                                                52000020
         MEND                                                           53000020
