         MACRO                                                          00100020
&NAME    MSGEDIT &OP,&BLANK=YES,&LAST=NO                       @Y17XAXA 00200000
         GBLA  &IEDQZD,&IEDQZE(64),&IEDQZK                              00300020
         GBLB  &IEDQZA(64)                                              00400020
         LCLA  &N,&IX,&L,&STAT(31),&F(31),&I(124),&K(124),&D(124),&H    00500020
         LCLA  &LEN,&WK,&OFF,&AO                                 S22025 00600022
         LCLA  &REGX                                           @Y17XAXA 00650000
         LCLB  &BIT(8),&T,&M,&NOGO,&SW                           S21903 00700022
         LCLB  &BITX(8)                                        @Y17XAXA 00705000
         LCLC  &C,&CH(3),&PREFX(2)                               S21903 00710022
.*A105000,108000,173000,196000,198000,291000,293000              S21903 00720082
.*C106000,107000,160000,164000,167000,168000,178000,181000       S21903 00720182
.*C236000,240000,243000,251000,296000,304000,363000              S21903 00720282
.*A426000,461000                                                SA51770 00720382
.*C009600,424000                                                SA51770 00720482
.*A108000,147600,152000 .                                        A49236 00720582
.*D147000 .                                                      A49236 00720682
.*D465000                                                        A49236 00720782
.*A117000                                                        A44897 00720882
.*C009600                                                        A44897 00720982
.*A147000                                                        A41035 00721082
.*C401100,401300,405200,405400,415400,416000,418200,418500     @YA05441 00721182
.*C623000                                                      @YA05441 00721282
.*C198000,198500                                               @OY12285 00721382
.*C009000,475000                                                 A41035 00721482
.*D142000-143000                                                 A41035 00721582
.*C049000                                                       SA68213 00721682
.*A418100,418300,418400,418600                                  OX01435 00721782
.*A006500,007050,014500,015000,160000,389206-389500            @Y17XAXA 00721882
.*A425500,463200-463800,510500-511500,532300-533500            @Y17XAXA 00721982
.*A572100-573000                                               @Y17XAXA 00722082
.*C002000,020200-020900,105724-105772,163200-163600            @Y17XAXA 00722182
.*A389353,389356                                               @OZ26902 00722282
.*C389350                                                      @OZ26902 00722382
.*A389200,389460                                               @OY19738 00722482
.*C389200,389368,389426,389455,390000-391000                   @OY19738 00722582
.*D389322-389336                                               @OY19738 00722682
.*A105744,105758                                               @OY20577 00722782
.*C160000                                                      @OY20577 00722882
.*A233000                                                      @OZ32684 00722982
.*A389200,389640                                               @OZ34765 00723082
.********************************************************************** 00980061
.*                                                                    * 00984061
.*              VERSION UPDATE LEVEL 6                                * 00988061
.*                                                                    * 00992061
.********************************************************************** 00996061
         SPACE 1                                                        01000000
.* MEANING OF INDICATORS                                                01100020
.* &BIT(8) -  1- I, 2 - A, 3 - T, 4 - INSERT IS DATA,                   01200020
.*            5 - IDLES, 6 - TO IS STRING, 7 - AT IS STRING,            01300020
.*            8 - AT IS SCAN                                            01400020
.* &BITX(8)-  1 - LAST = YES OR ALL   2 - LAST =         ERROR @Y17XAXA 01450000
.*            3 - INSERT (&REGX)      4 - INSERT (&REGX) ERROR @Y17XAXA 01500000
.* &F - 1 - I, 2 - A/T, 4 - A, 8 - T, 32 - AT IS STRING                 01550000
.* &STAT - 1 - INCLUSIVE TO, 2 - INCLUSIVE AT, 4 - TO IS COUNT,         01600020
.*         8 - TO IS OFFSET OR SCAN, 16 - TO IS STRING,                 01700020
.*         32 - DATA IS CONTRACT, 64 - DATA IS IDLES,                   01800020
.*         128 - DATA IS STRING, 192 - DATA IS DELIMIT                  01900020
&H       SETA  0                                                        02000020
         AIF   ('&LAST' EQ 'NO').LASTNO                        @Y17XAXA 02020000
         AIF   ('&LAST' EQ 'YES' OR '&LAST' EQ 'ALL').LASTOK   @Y17XAXA 02030000
         MNOTE 8,'***  IHB300  LAST=&LAST INVALID NO ASSUMED'  @Y17XAXA 02040000
&BITX(2) SETB  1                LAST = INVALID                 @Y17XAXA 02050000
.LASTOK  ANOP                                                  @Y17XAXA 02060000
&BITX(1) SETB  1                LAST = YES OR ALL              @Y17XAXA 02070000
.LASTNO  ANOP                   LAST = NO                      @Y17XAXA 02080000
         AIF   (NOT &IEDQZA(9)).TSOCHK                              TSO 02100020
         MNOTE 12,'***  IHB312  MUST FOLLOW STARTMH MACRO WITH TSOMH=NO*02200020
               '                                                        02300020
&NOGO    SETB  1                                                        02400020
.TSOCHK  AIF   (NOT &IEDQZA(5)).INBLK                            S22025 02500022
         MNOTE 12,'***  IHB070  SEQUENCE ERROR - MUST FOLLOW INHDR, INB*02700020
               UF, OUTHDR OR OUTBUF MACRO'                              02800020
&NOGO    SETB  1                                                        02900020
.INBLK   AIF   (NOT &IEDQZA(14)).T1                              S22025 02902022
.QCBDC   IEDQVCON (55,16),(IEDQBN,IEDQAO)                        S22025 02912022
.T1      AIF   ('&OP'(2,1) EQ '(' AND '&OP'(K'&OP-1,1) EQ ')').T11      02940020
         MNOTE 12,'***  IHB300  FIRST OPERAND INVALID AS SPECIFIED'     02980020
         AGO   .MEND                                                    03020020
.T11     AIF   (N'&OP LE 31 AND N'&OP GT 0).T2                          03060020
.T3      AIF   (&N GT 1).T5                                             03080020
         MNOTE 10,'***  IHB300  FIRST OPERAND INVALID AS SPECIFIED'     03100000
         AGO   .T6                                                      03120020
.T5      MNOTE 12,'***  IHB300  OPERAND &N INVALID AS SPECIFIED'        03140020
.T6      ANOP                                                           03160020
&NOGO    SETB  1                                                        03200020
.T2      AIF   ('&BLANK' EQ '' OR '&BLANK' EQ 'YES' OR '&BLANK' EQ 'NO'*03300020
               ).T4                                                     03400020
         IEDQCHAR 1,&BLANK                                              03500020
         AIF   (NOT &IEDQZA(24)).T4                                     03600020
         AIF   (&IEDQZD EQ 1).T4                                        03700020
         MNOTE 12,'***  IHB300  BLANK OPERAND INVALID AS SPECIFIED'     03800020
&NOGO    SETB  1                                                        03900020
.T4      ANOP                                                           04000020
&N       SETA  &N+1                                                     04060020
         AIF   (&N GT N'&OP).MEND                                       04120020
.LOOP    AIF   ('&OP(&N)'(1,1) EQ '(' AND '&OP(&N)'(K'&OP(&N),1) EQ ')'*04200020
               ).L1                                                     04300020
         MNOTE 12,'***  IHB300  SUBOPERAND &N INVALID AS SPECIFIED'     04400020
&NOGO    SETB  1                                                        04500020
.L1      AIF   ('&OP(&N)'(2,1) EQ 'I' OR '&OP(&N)'(2,1) EQ 'R').L2      04600020
.M1      MNOTE 12,'***  IHB300  FUNCTION SUBOPERAND &N INVALID AS SPECI*04700020
               FIED'                                                    04800020
         AGO   .MEND                                            SA68213 04900054
.L2      AIF   ('&OP(&N)'(2,1) NE 'I').R1                               05000020
&F(&N)   SETA  1                                                        05100020
&BIT(1)  SETB  1                                                        05200020
&IX      SETA  3                                                        05300020
         AIF   ('&OP(&N)'(3,1) NE ')').L2A                              05400020
&BIT(8)  SETB  1                                                        05500020
         AGO   .L6                                                      05600020
.L2A     AIF   ('&OP(&N)'(3,1) NE ',').M1                               05700020
         AGO   .L3                                                      05800020
.R1      ANOP                                                           05900020
&IX      SETA  3                                                        06000020
         AIF   ('&OP(&N)'(3,1) NE ')').R1A                              06100020
&STAT(&N) SETA &STAT(&N)+40                                             06200020
&BIT(8)  SETB  1                                                        06300020
         AGO   .L6                                                      06400020
.R1A     AIF   ('&OP(&N)'(3,1) NE ',').R2                               06500020
         AGO   .L3                                                      06600020
.R2      ANOP                                                           06700020
&F(&N)   SETA  2                                                        06800020
         AIF   ('&OP(&N)'(3,1) NE 'A').R3                               06900020
&F(&N)   SETA  &F(&N)+4                                                 07000020
&BIT(2)  SETB  1                                                        07100020
&STAT(&N) SETA &STAT(&N)+2                                              07200020
         AGO   .R4                                                      07300020
.R3      AIF   ('&OP(&N)'(3,1) NE 'T').M1                               07400020
&F(&N)   SETA  &F(&N)+8                                                 07500020
&BIT(3)  SETB  1                                                        07600020
&STAT(&N) SETA &STAT(&N)+1                                              07700020
.R4      ANOP                                                           07800020
&IX      SETA  4                                                        07900020
         AIF   ('&OP(&N)'(4,1) NE ')').R41                              08000020
&STAT(&N) SETA &STAT(&N)+40                                             08060020
&BIT(8)  SETB  1                                                        08120020
         AGO   .L6                                                      08200020
.R41     AIF   ('&OP(&N)'(4,1) EQ ',').L3                               08300020
.R5      AIF   ('&OP(&N)'(3,1) EQ '&OP(&N)'(4,1)).M1                    08500020
         AIF   ('&OP(&N)'(4,1) NE 'A').R6                               08600020
&F(&N)   SETA  &F(&N)+4                                                 08700020
&BIT(2)  SETB  1                                                        08800020
&STAT(&N) SETA &STAT(&N)+2                                              08900020
         AGO   .R7                                                      09000020
.R6      AIF   ('&OP(&N)'(4,1) NE 'T').M1                               09100020
&F(&N)   SETA  &F(&N)+8                                                 09200020
&BIT(3)  SETB  1                                                        09300020
&STAT(&N) SETA &STAT(&N)+1                                              09400020
.R7      ANOP                                                           09500020
&IX      SETA  5                                                        09600020
         AIF   ('&OP(&N)'(5,1) NE ')').R7A                              09700020
&STAT(&N) SETA &STAT(&N)+40                                             09770020
&BIT(8)  SETB  1                                                        09840020
         AGO   .L6                                                      09910020
.R7A     AIF   ('&OP(&N)'(5,1) NE ',').M1                               10000020
.L3      ANOP                                                           10100020
&IX      SETA  &IX+1                                                    10200020
         AIF   ('&OP(&N)'(&IX,1) NE ')').D1                             10300020
&STAT(&N) SETA &STAT(&N)+32                                             10400020
         AGO   .R6                                                      10500020
.M17     ANOP .                                                  S21903 10506022
&PREFX(1) SETC 'HEXFORM ' .                                      S21903 10512022
&PREFX(2) SETC 'IN' .                                            S21903 10518022
&SW      SETB  1 .                                               S21903 10524022
         AGO   .M2 .                                             S21903 10530022
.M18     ANOP                                                    S21903 10536022
&L       SETA  &L+1                                              S21903 10542022
         AIF   ('&OP(&N)'(&IX+&L,1) EQ ')').M19                  S21903 10548022
         AGO   .M18                                              S21903 10554022
.M185    ANOP .                                                  S21903 10560022
&PREFX(1) SETC 'DEC INTE' .                                      S21903 10566022
&PREFX(2) SETC 'GER IN' .                                        S21903 10572022
.M19X    ANOP                                                  @Y17XAXA 10572400
         AIF   (&L EQ 2).REGXY1      REGX EQ  0 THRU  9        @Y17XAXA 10572800
         AIF   (&L EQ 3).REGXY2      REGX EQ 10 THRU 15        @Y17XAXA 10573200
         AGO   .M19                                            @Y17XAXA 10573600
.REGXY1  ANOP                                                  @Y17XAXA 10574000
&CH(1)   SETC  '&OP(&N)'(&IX+&L-1,1)                           @Y17XAXA 10574200
&REGX    SETA  &CH(1)                                          @Y17XAXA 10574400
         AIF   (&REGX LT 2).M19         IF REGISTER SPEC LT 2  @OY20577 10574682
         AGO   .REGXYE                                         @Y17XAXA 10574800
.REGXY2  ANOP                                                  @Y17XAXA 10575200
&CH(2)   SETC  '&OP(&N)'(&IX+&L-2,2)                           @Y17XAXA 10575600
&REGX    SETA  &CH(2)                                          @Y17XAXA 10575800
         AIF   (&REGX GT 12).M19        IF REGISTER SPEC GT 12 @OY20577 10575982
.REGXYE  ANOP                                                  @Y17XAXA 10576000
&IX      SETA  &IX+&L+1                                        @Y17XAXA 10576400
&BIT(4)  SETB  1                      INDICATE INSERT DATA     @Y17XAXA 10576600
&BITX(3) SETB  1                      INDICATE REG X           @Y17XAXA 10576800
         AGO   .L4                    CONTINUE NORMALLY        @Y17XAXA 10577400
.M19     ANOP                                                    S21903 10578022
&L       SETA  &L+1                                              S21903 10584022
.M2      MNOTE 12,'***  IHB300 &PREFX(1).&PREFX(2) DATA SUBOPERAND &N I*10600022
               NVALID AS SPECIFIED'  .                           S21903 10700022
&NOGO    SETB  1                                                        10800020
&PREFX(1)  SETC ''                                               S21903 10810022
&PREFX(2)  SETC ''                                               S21903 10820022
&IX      SETA  &IX+&L .                 BUMP TO NEXT OPERAND     A49236 10830022
         AIF   (&SW).CONT .                                      S21903 10840022
         AGO   .L4 .                                             A49236 10850022
.D1      AIF   ('&OP(&N)'(&IX,1) NE ',').D11                            10900020
&STAT(&N) SETA &STAT(&N)+32                                             11000020
         AGO   .L4                                                      11100020
.D11     AIF   ('&OP(&N)'(&IX,8) EQ 'CONTRACT' OR '&OP(&N)'(&IX,7) EQ '*11200020
               DELIMIT').D1A                                            11300020
&BIT(4)  SETB  1                                                        11400020
.D1A     AIF   ('&OP(&N)'(&IX,8) NE 'CONTRACT').D2                      11500020
&IX      SETA  &IX+8                                                    11600020
&STAT(&N) SETA &STAT(&N)+32                                             11700020
         AIF   ('&OP(&N)'(2,1) EQ 'R' AND '&OP(&N)'(&IX,1) NE ')').L4   11720021
.*                                                               A44897 11740021
&BIT(8)  SETB  1                                                 A44897 11760021
         AGO   .L4                                                      11800020
.D2      AIF   ('&OP(&N)'(&IX,1) EQ '(' OR '&OP(&N)'(&IX,7) EQ 'DELIMIT*11900020
               ').D3                                                    12000020
&L       SETA  1                                                        12100020
.DL1     AIF   ('&OP(&N)'(&IX+&L,1) EQ ')').DL2                         12200020
         AIF   ('&OP(&N)'(&IX+&L,1) EQ ',').DL2                         12300020
&L       SETA  &L+1                                                     12400020
         AGO   .DL1                                                     12500020
.DL2     AIF   (&L GT 21).M2                                            12600020
         AIF   (&L GT 8).DLS1                                           12700020
&CH(1)   SETC  '&OP(&N)'(&IX,&L)                                        12800020
&CH(2)   SETC  ''                                                       12900020
&CH(3)   SETC  ''                                                       13000020
         AGO   .CH1                                                     13100020
.DLS1    ANOP                                                           13200020
&CH(1)   SETC  '&OP(&N)'(&IX,8)                                         13300020
         AIF   (&L GT 16).DLS2                                          13400020
&CH(2)   SETC  '&OP(&N)'(&IX+8,&L-8)                                    13500020
&CH(3)   SETC  ''                                                       13600020
         AGO   .CH1                                                     13700020
.DLS2    ANOP                                                           13800020
&CH(2)   SETC  '&OP(&N)'(&IX+8,8)                                       13900020
&CH(3)   SETC  '&OP(&N)'(&IX+16,&L-16)                                  14000020
.CH1     IEDQCHAR 8,&CH(1).&CH(2).&CH(3)                                14100020
&I(&H+1) SETA  &IX                                                      14400020
&K(&H+1) SETA  &L                                                       14500020
&D(&H+1) SETA  &IEDQZD                                                  14600020
         AIF   (&IEDQZA(24)).M2                                  A41035 14730021
         AIF   (&IEDQZD GT 8).M2                                 A41035 14760021
&IX      SETA  &IX+&L .                 BUMP TO NEXT OPERAND     A49236 14780022
&STAT(&N) SETA &STAT(&N)+128                                            14800020
         AIF   ('&OP(&N)'(&IX,1) NE ')').L4                             14900020
&BIT(8)  SETB  1                                                        15000020
         AGO   .L4                                                      15100020
.D3      AIF   ('&OP(&N)'(&IX,7) NE 'DELIMIT').D4                       15200020
&L       SETA  7 .                                               A49236 15250022
         AIF   ('&OP(&N)'(2,1) NE 'R').M2                               15300020
&STAT(&N) SETA &STAT(&N)+192                                            15400020
&IX      SETA  &IX+7                                                    15500020
         AGO   .L4                                                      15600020
.D4      ANOP                                                           15700020
&L       SETA  2                                                        15900020
.DL3     AIF   ('&OP(&N)'(&IX+&L,1) EQ ')').M185               @OY20577 16000082
         AIF   ('&OP(&N)'(&IX+&L,1) EQ ',').DL4                         16100020
&L       SETA  &L+1                                                     16200020
         AGO   .DL3                                                     16300020
.DL4     ANOP                                                  @Y17XAXA 16330000
&BIT(5)  SETB  1                                               @Y17XAXA 16360000
         AIF   (&L GT 9).M17 .                                 @Y17XAXA 16400000
&CH(1)   SETC  '&OP(&N)'(&IX+1,&L-1)                                    16500020
         IEDQCHAR 1,&CH(1)                                              16600020
         AIF   (&IEDQZA(24)).M17 .                               S21903 16700022
         AIF   (&IEDQZD GT 1).M17 .                              S21903 16800022
&I(&H+1) SETA  &IX+1                                                    16900020
&K(&H+1) SETA  &L-1                                                     17000020
&D(&H+1) SETA  &IEDQZD                                                  17100020
&IX      SETA  &IX+&L                                                   17200020
&STAT(&N) SETA &STAT(&N)+64                                             17300020
         AGO   .CONT1 .                                          S21903 17320022
.CONT    ANOP .                                                  S21903 17340022
&SW      SETB  0 .                                               S21903 17360022
.CONT1   ANOP .                                                  S21903 17380022
&L       SETA  1                                                        17400020
.DL5     AIF   ('&OP(&N)'(&IX+&L,1) EQ ')').DL6                         17500020
&L       SETA  &L+1                                                     17600020
         AGO   .DL5                                                     17700020
.DL6     AIF   (&L GT 7).M185 .                                  S21903 17800022
&CH(1)   SETC  '&OP(&N)'(&IX+1,&L-1)                                    17900020
         IEDQMASK &CH(1),1                                              18000020
         AIF   (&IEDQZA(24)).M185 .                              S21903 18100022
&I(&H+2) SETA  &IX+1                                                    18200020
&K(&H+2) SETA  &L-1                                                     18300020
&D(&H+2) SETA  &IEDQZD                                                  18400020
&IX      SETA  &IX+&L+1                                                 18500020
.L4      AIF   ('&OP(&N)'(&IX,1) EQ ')').L6                             18600020
         AIF   ('&OP(&N)'(&IX,1) NE ',').M2                             18700020
&IX      SETA  &IX+1                                                    18800020
         AIF   ('&OP(&N)'(&IX,1) EQ 'C' OR '&OP(&N)'(&IX,1) EQ 'X').A2  18900020
         AIF   (N'&OP GT 1 OR ('&OP(&N)'(3,1) EQ 'A' OR '&OP(&N)'(4,1) *19000020
               EQ 'A')).T3                                              19100020
         AIF   ('&OP(&N)'(&IX,1) EQ ')').L6                             19200020
         AIF   ('&OP(&N)'(&IX,1) EQ ',').TEMP1                          19300020
         AIF   ('&OP(&N)'(&IX,4) NE 'SCAN').A1                          19400020
&BIT(8)  SETB  1                                                        19500020
         AIF   (&IEDQZA(3) OR &IEDQZA(4)).L4A                           19600020
.M27     ANOP .                                                  S21903 19610022
&L       SETA  0 .                                               S21903 19620022
.M28     ANOP .                                                  S21903 19630022
&L       SETA  &L+1 .                                            S21903 19640022
         AIF   ('&OP(&N)'(&IX+&L,1) EQ ')').M29 .                S21903 19650022
         AIF   ('&OP(&N)'(&IX+&L,1) EQ ',').M3 .                 S21903 19660022
         AGO   .M28 .                                            S21903 19670022
.M29     ANOP .                                                  S21903 19680022
&L       SETA  &L+1 .                                            S21903 19690022
.M3      MNOTE 12,'***  IHB300  AT SUBOPERAND &N INVALID AS SPECIFIED'  19700020
         AGO   .MEND                                           @OY12285 19800091
.TEMP1   ANOP                                                           19900020
&BIT(8)  SETB  1                                                        20000020
         AGO   .L5                                                      20100020
.L4A     ANOP                                                           20200020
&IX      SETA  &IX+4                                                    20300020
         AGO   .L5                                                      20400020
.A1      AIF   ('&OP(&N)'(&IX,1) EQ '(').A3                             20500020
&L       SETA  1                                                        20600020
.AL1     AIF   ('&OP(&N)'(&IX+&L,1) EQ ')').AL2                         20700020
         AIF   ('&OP(&N)'(&IX+&L,1) EQ ',').AL2                         20800020
&L       SETA  &L+1                                                     20900020
         AGO   .AL1                                                     21000020
.AL2     AIF   (&L GT 9).M3                                             21100020
         AIF   (&L GT 8).ALS1                                           21200020
&CH(1)   SETC  '&OP(&N)'(&IX,&L)                                        21300020
&CH(2)   SETC  ''                                                       21400020
         AGO   .MK1                                                     21500020
.ALS1    ANOP                                                           21600020
&CH(1)   SETC  '&OP(&N)'(&IX,8)                                         21700020
&CH(2)   SETC  '&OP(&N)'(&IX+8,&L-8)                                    21800020
.MK1     IEDQMASK &CH(1).&CH(2),2                                       21900020
         AIF   (&IEDQZA(24)).M3                                         22000020
&I(&H+3) SETA  &IX                                                      22100020
&K(&H+3) SETA  &L                                                       22200020
&D(&H+3) SETA  &IEDQZD                                                  22300020
&IX      SETA  &IX+&L                                                   22400020
         AGO   .L5                                                      22500020
.A2      ANOP                                                           22600020
&L       SETA  1                                                        22700020
.AL3     AIF   ('&OP(&N)'(&IX+&L,1) NE ')').ALT3                        22800020
         AGO   .AL4                                                     22900020
.ALT3    AIF   ('&OP(&N)'(&IX+&L,1) EQ ',').AL4                         23000020
&L       SETA  &L+1                                                     23100020
         AGO   .AL3                                                     23200020
.A3      ANOP                                                           23300020
         AIF   ('&LAST' EQ 'NO').A3N         LAST=NO?          @OZ32684 23310082
         MNOTE 8,'***  IHB300  LAST OPERAND INVALID WITH SPECIFIED AT FX23320082
               UNCTION'                                        @OZ32684 23330082
&BITX(2) SETB  1                             LAST=INVALID      @OZ32684 23340082
.A3N     ANOP                                                  @OZ32684 23350082
&M       SETB  1                                                        23400020
&L       SETA  1                                                        23500020
.AL6     AIF   ('&OP(&N)'(&IX+&L,1) EQ ')').M29 .                S21903 23600022
         AIF   ('&OP(&N)'(&IX+&L,1) EQ ',').AL7                         23700020
&L       SETA  &L+1                                                     23800020
         AGO   .AL6                                                     23900020
.AL7     AIF   (&L GT 5).M28 .                                   S21903 24000022
&CH(1)   SETC  '&OP(&N)'(&IX+1,&L-1)                                    24100020
         IEDQMASK &CH(1),2                                              24200020
         AIF   (&IEDQZA(24)).M28 .                               S21903 24300022
&I(&H+3) SETA  &IX+1                                                    24400020
&K(&H+3) SETA  &L-1                                                     24500020
&D(&H+3) SETA  &IEDQZD                                                  24600020
&IX      SETA  &IX+&L+1                                                 24700020
         AIF   (('&OP(&N)'(&IX,1) GE 'A' AND '&OP(&N)'(&IX,1) LE 'Z') O*24800020
               R '&OP(&N)'(&IX,1) EQ '$' OR '&OP(&N)'(&IX,1) EQ '#' OR *24900020