         MACRO                                                          01000020
&NAME    MSGFORM &BLOCK=,&SUBBLCK=,&SENDTRP=NO,&ENDCHAR=,&COUNT=,      *02000022
               &LC=OUT                                           S22024 02500022
.*C460000                                                        Y01004 02700004
         GBLA  &IEDQZE(64),&IEDQZD,&IEDQZK                       S22025 03000020
         GBLB  &IEDQRN(8),&IEDQZA(64)                            S22024 04000022
         LCLA  &I,&L,&LNGRS,&CH,&AA,&S                           S22024 04800022
         LCLB  &NOGO,&B(8),&OUT,&HEX,&LCIN                       S22024 05600022
         LCLC  &TEMP,&C,&A                                       S22025 06400020
.*       VERSION DATED MAY 24,1977                             @OY18019 07200000
.*A220000                                                      @XA07490 07300081
.*D220200                                                      @XA07490 07400081
.*C460000                                                        Y02027 07600006
.*C180000                                                      @OX12571 07800000
.*C460000                                                      @OY18019 07850000
.*C460000                                                      @OZ26266 07850182
.* DUMMY APAR                                                  @OZ27328 07850282
.*C360500                                                      @OZ32771 07850382
         SPACE                                                          08000020
&I       SETA  2                                                        09000020
         AIF   (NOT &IEDQZA(9)).CKINBLK                          S22025 10000020
         MNOTE 12,'***  IHB312  MUST FOLLOW STARTMH MACRO WITH TSOMH=NO*11000020
               '                                                        12000020
.CKINBLK AIF   (NOT &IEDQZA(14)).TSOCHK                          S22025 12070020
         AIF   ('&LC' NE 'IN').CHK23                             S22024 12080022
.ERRLC   MNOTE 12,'***  IHB300  LC OPERAND INVALID AS SPECIFIED' S22024 12090022
         AGO   .MEND                                             S22024 12100022
.CHK23   ANOP                                                    S22024 12110022
         AIF   (&IEDQZA(23)).SECOND                              S22025 12140020
&IEDQZA(23) SETB 1                                               S22025 12210020
         AGO   .CKINOUT                                          S22025 12280020
.SECOND  MNOTE 12,'*** IHB234 MSGFORM MACRO PREVIOUSLY DEFINED IN      C12350022
               INBLOCK'                                          S22025 12420022
         AGO   .MEND                                             S22025 12490020
.CKINOUT AIF   ('&SUBBLCK' EQ '' AND '&COUNT' EQ '').CK2         S22025 12560020
.ERR4    ANOP                                                           12630022
         MNOTE 12,'*** IHB324 INVALID OPERANDS SPECIFIED'        S22025 12660022
         AGO   .MEND                                             S22025 12700020
.CK2     AIF   ('&BLOCK' NE '' AND '&ENDCHAR' NE '').CK3         S22025 12770020
.BLKREQ  ANOP                                                    S22024 12800022
         MNOTE 12,'*** IHB001 REQUIRED OPERAND NOT SPECIFIED ***'       12840020
         AGO   .MEND                                             S22025 12910020
.CKENDC  ANOP                                                    S22025 12980020
&TEMP    SETC  'ENDCHAR'                                         S22025 13050020
.CK3     ANOP                                                    S22025 13120020
         AIF   ('&ENDCHAR'(1,2) NE 'C''').CKRS1                  S22025 13190020
         AIF   ('&ENDCHAR'(K'&ENDCHAR,1) NE '''' OR K'&ENDCHAR GT      X13260020
               11).ERR1                                          S22025 13330020
&LNGRS   SETA  (K'&ENDCHAR-3)                                    S22025 13400020
         AGO   .CKBLK                                            S22025 13470020
.CKRS1   AIF   ('&ENDCHAR'(1,2) NE 'CL').CKRS2                   S22025 13540020
         AIF   ('&ENDCHAR'(4,1) NE '''' OR '&ENDCHAR'(K'&ENDCHAR,1) NE X13610020
               '''').OPFD1                                       S22025 13680020
&C       SETC  '&ENDCHAR'(3,1)                                   S22025 13750020
&CH      SETA  &C                                                S22025 13820020
         AIF   (K'&ENDCHAR GT 13 OR &CH NE (K'&ENDCHAR-5)).ERR3  S22025 13890020
&LNGRS   SETA  (K'&ENDCHAR-5)                                    S22025 13960020
         AGO   .CKBLK                                            S22025 14030020
.CKRS2   AIF   ('&ENDCHAR'(1,2) NE 'X''').CKRS3                  S22025 14100020
         AIF   ('&ENDCHAR'(K'&ENDCHAR,1) NE '''' OR K'&ENDCHAR GT      X14170020
               19).FFF                                           S22025 14240020
&LNGRS   SETA  ((K'&ENDCHAR-3)/2)                                S22025 14310020
         AGO   .CKBLK                                            S22025 14380020
.CKRS3   AIF   ('&ENDCHAR'(1,2) NE 'XL').OPFD1                   S22025 14450020
         AIF   ('&ENDCHAR'(4,1) NE '''' OR '&ENDCHAR'(K'&ENDCHAR,1) NE X14520020
               '''').OPFD1                                       S22025 14590020
&C       SETC  '&ENDCHAR'(3,1)                                   S22025 14660020
&CH      SETA  &C                                                S22025 14730020
&CH      SETA  (&CH*2)                                           S22025 14800020
         AIF   (K'&ENDCHAR GT 21 OR &CH NE (K'&ENDCHAR-5)).ERR3  S22025 14870020
&LNGRS   SETA  ((K'&ENDCHAR-5)/2)                                S22025 14940020
         AIF   (&IEDQZA(4)).SND                                  S22025 15010020
         AGO   .CKBLK                                            S22025 15080020
.OPFD1   ANOP                                                    S22025 15150020
         AIF   (&IEDQZA(4)).ERR3                                 S22025 15220020
&B(2)    SETB  1                                                 S22025 15290020
         AIF   (K'&ENDCHAR LE 8).CKBLK                           S22025 15360020
.ERR3    MNOTE 12,'*** IHB300 &TEMP    OPERAND INVALID AS SPECIFIED'    15430022
         AGO   .MEND                                             S22025 15500020
.TSOCHK  ANOP                                                    S22026 15570022
         AIF   ((&IEDQZA(2) AND NOT &IEDQZA(4) AND NOT &IEDQZA(5)) OR &X15970022
               IEDQZA(4)).CHECK .                                S22026 16370022
         MNOTE 12,'*** IHB070 SEQUENCE ERROR - MUST FOLLOW OUTHDR, INBLX16770022
               OCK OR OUTBUF MACRO' .                            S22026 17170022
         AGO   .MEND                                           @OX12571 18000000
.CHECK   AIF   (&IEDQZA(14)).CKBLK                               S22025 18010020
&LCIN    SETB  ('&LC' EQ 'IN')                                   S22024 18013022
         AIF   (&LCIN).CKBLK                                     S22024 18016022
         AIF   ('&ENDCHAR' EQ '' AND '&COUNT' EQ '').OP          S22025 18020020
         AIF   ('&ENDCHAR' NE '' AND '&COUNT' NE '').CK10        S22025 18030020
         MNOTE 12,'*** IHB001 REQUIRED OPERAND NOT SPECIFIED ***'       18040020
         AGO   .MEND                                             S22025 18050020
.CK10    AIF   ('&BLOCK' EQ '' AND '&SUBBLCK' EQ '').CKCNT       S22025 18060020
         AGO   .ERR4                                             S22025 18070022
.CKCNT   AIF   ('&COUNT'(1,2) NE 'X''').BBB                      S22025 18090020
         AIF   (K'&COUNT EQ 5 AND '&COUNT'(5,1) EQ '''').CCC     S22025 18100020
.AAA     ANOP                                                    S22025 18110022
.ERC     ANOP                                                    S22025 18115022
&TEMP    SETC  'COUNT'                                           S22025 18120022
         AGO   .ERR3                                             S22025 18125022
.CCC     ANOP                                                    S22025 18130020
&HEX     SETB  1                                                 S22025 18140020
&OUT     SETB  1                                                 S22025 18150020
         AGO   .CKENDC                                           S22025 18160020
.BBB     AIF   ('&COUNT'(1,4) NE 'XL1''').DEC                    S22025 18170020
         AIF   (K'&COUNT NE 7 OR '&COUNT'(7,1) NE '''').AAA      S22025 18180020
&HEX     SETB  1                                                 S22025 18190020
&OUT     SETB  1                                                 S22025 18200020
         AGO   .CKENDC                                           S22025 18210020
.DEC     ANOP                                                    S22025 18220020
&A       SETC  '&COUNT'                                          S22025 18230020
&AA      SETA  &A                                                S22025 18240020
         AIF   (&AA GT 255).AAA                                  S22025 18250020
&OUT     SETB  1                                                 S22025 18260020
         AGO   .CKENDC                                           S22025 18270020
.OP      AIF   ('&BLOCK' EQ '').SUB                                     18400020
.CKBLK   ANOP                                                    S22025 18500020
         AIF   (&OUT).SND                                        S22025 18600020
         AIF   ('&BLOCK' EQ '0' OR '&BLOCK' EQ 'X''0''' OR '&BLOCK' EQ *18800020
               'X''00''' OR '&BLOCK' EQ 'X''000''' OR '&BLOCK' EQ 'X''0*19200020
               000''').ERR                                              19600020
         AIF   ('&BLOCK' EQ 'XL1''0''' OR '&BLOCK' EQ 'XL1''00''' OR '&*20000020
               BLOCK' EQ 'XL1''000''' OR '&BLOCK' EQ 'XL1''0000''').ERR 20400020
         AIF   ('&BLOCK' EQ 'XL2''0''' OR '&BLOCK' EQ 'XL2''00''' OR '&*20800020
               BLOCK' EQ 'XL2''000''' OR '&BLOCK' EQ 'XL2''0000''').ERR 21200020
         IEDQMASK &BLOCK,2                                              22000020
         AIF   ((&IEDQZA(2) AND NOT &IEDQZA(4) AND NOT &IEDQZA(5)) OR &*22006081
               IEDQZA(4)).SUB                                  @XA07490 22012081
         IEDQVCON (47,38,16),(IEDQAK,IEDQAF,IEDQAO)              S22025 22040020
         IEDQVCON (55),IEDQBN                                    S22025 22060020
         CNOP  0,4                                               S22025 22080020
         BAL   1,*+20                                            S22025 22100020
         DC    AL1(&IEDQZE(47)),AL1(16)                          S22025 22120020
         AIF   ('&BLOCK'(1,1) EQ 'X').XDC                        S22025 22140020
         DC    AL2(&BLOCK)                                       S22025 22160020
         AGO   .FINPARM                                          S22025 22180020
.XDC     DC    &BLOCK                                            S22025 22200020
.FINPARM ANOP                                                    S22025 22220020
         DC    AL1(&IEDQZE(55)+1) .                              S22025 22240022
         DC    BL1'&B(8)&B(7)&B(6)&B(5)&B(4)&B(3)&B(2)&B(1)'     S22025 22260020
         DC    AL1(&IEDQZE(38)),AL1(&IEDQZE(16))                 S22025 22280020
         DC    F'0'                     QCB FOR MSGFORM          S22025 22300020
         AIF   (&B(2)).OPFLD                                     S22025 22320020
         IEDQCHAR 8,&ENDCHAR                                     S22025 22340020
         AIF   (NOT &IEDQZA(24)).SKIP5                           S22025 22360020
.FFF     ANOP                                                    S22025 22380022
&TEMP    SETC  'ENDCHAR'                                         S22025 22390022
         AGO   .ERR3                                             S22025 22400022
.SKIP5   AIF   (&IEDQZD GT 8).FFF                                S22025 22420020
&C       SETC  '&SYSECT'                                         S22025 22440020
IEDQMISC CSECT                                                   S22025 22460020
         DC    &ENDCHAR                                          S22025 22480020
&C       CSECT                                                   S22025 22500020
         DC    AL1(&IEDQZD),AL3(IEDQMISC+&IEDQZK)                S22025 22520020
&IEDQZK  SETA  &IEDQZK+&IEDQZD                                   S22025 22540020
         AGO   .LINK                                             S22025 22560020
.OPFLD   IEDQVCON (31),IEDQAE                                    S22025 22580020
         DC    AL1(&IEDQZE(31)),AL1(4)                           S22025 22600020
         DC    AL1(&ENDCHAR),AL1(16)                             S22025 22620020
.LINK    ANOP                                                    S22025 22640020
         L     15,IEDUI                                          S22025 22660020
         BALR  14,15                                             S22025 22680020
         AGO   .MEND                                             S22025 22700020
.ERR     MNOTE 12,'***  IHB300  BLOCK OPERAND INVALID AS SPECIFIED'     24000020
&NOGO    SETB  1                                                        25000020
.SUB     AIF   ('&SUBBLCK' EQ '').SND                                   25600020
         AIF   ('&SUBBLCK' EQ '0' OR '&SUBBLCK' EQ 'X''0''' OR '&SUBBLC*26200020
               K' EQ 'X''00''' OR '&SUBBLCK' EQ 'XL1''0''' OR '&SUBBLCK*26800020
               ' EQ 'XL1''00''').ERR1                                   27400020
         IEDQMASK &SUBBLCK,1                                            28000020
         AIF   (NOT &IEDQZA(24)).SND                                    29000020
.ERR1    MNOTE 12,'***  IHB300  SUBBLOCK OPERAND INVALID AS SPECIFIED'  30000020
&NOGO    SETB  1                                                        31000020
.SND     AIF   ('&SENDTRP' EQ '').ERR2                                  32000020
         AIF   ('&SENDTRP' EQ 'YES' OR '&SENDTRP(1)' EQ 'YES').CONS     33000022
         AIF   ('&SENDTRP' EQ 'NO' OR '&SENDTRP(1)' EQ 'NO').ORG        33500022
.ERR2    MNOTE 12,'***  IHB300  SENDTRP OPERAND INVALID AS SPECIFIED'   34000020
&NOGO    SETB  1                                                        35000020
.CONS    ANOP                                                    S22024 36000022
         AIF   ('&LC' EQ 'OUT').LCOK                           @OZ32771 36050082
         MNOTE 12,'***  IHB300  LC OPERAND INVALID AS SPECIFIED' S22024 36100022
&NOGO    SETB  1                                                 S22024 36150022
.LCOK    AIF   (&LCIN AND NOT &IEDQRN(1)).ERRLC                  S22024 36200022
         AIF   (&LCIN AND ('&SUBBLCK' NE '' OR '&ENDCHAR' NE ''        *36250022
               OR '&COUNT' NE '')).ERRLC                         S22024 36300022
         AIF   (&LCIN AND '&BLOCK' NE '' AND '&SENDTRP' EQ             *36350022
               'NO').ERRLC                                       S22024 36400022
         AIF   ('&SUBBLCK' NE '' OR '&COUNT' NE '').INCON        S99238 36500022
         AGO   .ORG                                                     37000020
.INCON   MNOTE 12,'***  IHB066  INCONSISTENT OPERANDS'                  38000020
&NOGO    SETB  1                                                        39000020
.ORG     AIF   (&NOGO).MEND                                             40000020
         IEDQVCON (46,47,38,16),(IEDQA6,IEDQAK,IEDQAF,IEDQAO)    S22025 41000020
         AIF   ('&SENDTRP' EQ 'YES').PAD2                        S99238 42000022
         AIF   ('&SENDTRP' EQ 'NO').B                            S99238 42100022
         AIF   ('&SENDTRP(1)' EQ 'YES' AND '&SENDTRP(2)' EQ 'PAD').PAD2 42200022
         AIF   ('&SENDTRP(1)' EQ 'YES' AND '&SENDTRP(2)' EQ 'NOPAD').NO 42300022
         AIF    ('&SENDTRP(1)' EQ 'NO').B                        S99238 42400022
         AGO   .ERR2                                             S99238 42500022
.NO      ANOP                                                    S99238 42600022
&S       SETA  3                                                 S99238 42700022
         AGO   .CHECKIT                                          S99238 42800022
.PAD2    ANOP                                                    S99238 42900022
&S       SETA  1                                                 S99238 43000022
.CHECKIT ANOP                                                    S99238 43100022
         AIF   (&IEDQZA(31)).B                                          44000020
         ORG   IEDA3                                                    45000020
         DC    V(IEDQGT)                                       @OZ26266 46000082
         ORG                                                            47000020
&IEDQZA(31) SETB 1                                                      48000020
.B       AIF   (NOT &OUT).CONT2                                  S22025 48060020
         AIF   (&LNGRS NE 1).FFF                                 S22025 48120022
.OUTDC   ANOP                                                    S22025 48300020
&IEDQZA(23) SETB 1             VARIABLE BLOCK ON OUTPUT          S22025 48360020
         CNOP  0,4                                               S22025 48420020
&NAME    BAL   1,*+8                                             S22025 48480020
         DC    AL1(&IEDQZE(46)+2),AL1(4)                         S22025 48540020
         AIF   (NOT &HEX).DECDC                                  S22025 48600020
         DC    &ENDCHAR,&COUNT                                   S22025 48660020
         AGO   .L                                                S22025 48720020
.DECDC   DC    &ENDCHAR,AL1(&COUNT)                              S22025 48780020
         AGO   .L                                                S22025 48840020
.CONT2   AIF   ('&SUBBLCK' EQ '').CHKB                           S22025 49340020
&I       SETA  &I+1                                                     50000020
.CHKB    AIF   ('&BLOCK' EQ '').CHKLC                            S22024 51000022
&I       SETA  &I+2                                                     52000020
.CHKLC   AIF   (NOT &LCIN).GEN                                   S22024 52200022
&I       SETA  &I+1                                              S22024 52400022
&S       SETA  &S+2                                              S22024 52600022
.GEN     AIF   (&I EQ 2).S2                                             53000020
         AIF   (&I NE 5).S4                                             54000020
&L       SETA  &L+2                                                     55000020
.S4      ANOP                                                           56000020
&L       SETA  &L+2                                                     57000020
.S2      ANOP                                                           58000020
&L       SETA  &L+2                                                     59000020
.BAL     ANOP                                                           62000020
&NAME    BAL   1,*+4+&L                                                 63000020
         DC    AL1(&IEDQZE(46)+&S),AL1(&I)                              64000020
         AIF   ('&BLOCK' NE '').GENB                                    65000020
         AIF   (&I EQ 2).L                                              66000020
.GS      AIF   (&LCIN).LC1                                       S22024 67000022
         AIF   ('&SUBBLCK'(1,1) EQ 'X').SB                       S22024 67500022
         DC    AL1(&SUBBLCK),AL1(0)                                     68000020
         AGO   .L                                                       69000020
.SB      DC    &SUBBLCK,AL1(0)                                          70000020
         AGO   .L                                                       71000020
.LC1     DC    CL1'I',AL1(0)                                     S22024 71300022
         AGO   .L                                                S22024 71600022
.GENB    AIF   ('&BLOCK'(1,1) EQ 'X').SS                                72000020
         DC    AL2(&BLOCK)                                              73000020
         AGO   .CHKS                                                    74000020
.SS      AIF   ('&BLOCK'(1,4) EQ 'XL1''' AND K'&BLOCK LE 7).PAD         74800020
         AIF   ('&BLOCK'(1,4) EQ 'XL2''').NOPAD                         75600020
         AIF   (K'&BLOCK LE 5).PAD                                      76400020
.NOPAD   DC    &BLOCK                                                   77200020
         AGO   .CHKS                                                    78000020
.PAD     DC    AL1(0),&BLOCK                                            78800020
.CHKS    AIF   (&I EQ 5).GS                                             79600020
.L       L     15,IEDUI                                                 81000020
         BALR  14,15                                                    82000020
&IEDQZA(26) SETB 1                                                      83000020
.MEND    SPACE 2                                                        84000020
         MEND                                                           85000020
