         MACRO                                                          00200000
&NAME    MSGGEN &MASK,&MSG,&CODE=,&IN=(1030,1050,105F,1060,2260,2265,27*00300000
               40,274F,ITA2,ZSC3,TTYA,TTYB,TTYC,6BIT,ASCI,EBCD,BC41,EB4*00410000
               1,CR41),&CONNECT=OR,&RH=                        @Y17XANQ 00420000
         GBLA  &IEDQZD,&IEDQZE(64),&IEDQZK                              00430000
         GBLB  &IEDQZA(64),&IEDQMHF(64)                        @YM07267 00440000
         GBLB  &IEDQRN(8)                                      @YM07669 00445000
         LCLA  &A,&IX,&LEN,&T,&FLG                             @Y17XANQ 00450000
         LCLB  &NOGO,&ALG,&BIT                                          01150000
         LCLC  &C                                                       01850000
.*C540000                                                      @SA72488 02550000
.*A126000,909000                                               @Y17XANQ 03250000
.*C036000,063000,369000,432000-459000,558000-666000,819000     @Y17XANQ 03950000
.*C900000                                                      @Y17XANQ 04650000
.*C249500,263500                                               @PI06853 04750000
.*C200500,690500,693500                                        @PI06852 04850000
.*A116500                                                      @PI06852 04950000
.*A627500                                                      @YM07267 05050000
.*C004400,634500                                               @YM07267 05150000
.*C629500                                                      @YM07694 05250000
.*C307000                                                      @OY16457 05250182
         SPACE                                                          05350000
&C       SETC  '&SYSECT'                                                06050000
&IX      SETA  1                                                        06750000
&T       SETA  10                                                       07450000
&LEN     SETA  12                      SETUP NORMAL LENGTH     @Y17XANQ 08150000
         AIF   (&IEDQZA(5)).OK                                          08850000
         MNOTE 12,'***  IHB070  SEQUENCE ERROR-MUST FOLLOW INMSG OR OUT*09550000
               MSG MACRO'                                               10250000
&NOGO    SETB  1                                                        10950000
.OK      AIF   ('&MSG' NE '').CHK                                       11650000
&LEN     SETA  &LEN-4                   REDUCE PARM LIST LNGTH @PI06852 11700000
&FLG     SETA  &FLG+32                  INDICATE  NO MSG DATA  @YM06037 11750000
         AIF   ('&RH' NE '').CHK        IF RH AND NO MSG = OK  @YM06037 11850000
         MNOTE 12,'***  IHB004  REQUIRED OPERANDS NOT SPECIFIED'        11950000
&NOGO    SETB  1                                                        13050000
.CHK     AIF   ('&MASK' EQ '').NXT                                      13750000
         IEDQMASK &MASK,5                                               14450000
         AIF   (&IEDQZA(24)).ERR                                        15150000
         AIF   ('&MASK'(1,1) NE 'X').NXT                                15850000
         AIF   ('&MASK'(2,1) EQ 'L' AND '&MASK'(3,1) NE '5').ERR        16550000
         AIF   ('&MASK'(2,1) NE 'L' AND K'&MASK NE 13).ERR              17250000
         AGO   .NXT                                                     17950000
.ERR     MNOTE 12,'***  IHB300  MASK OPERAND INVALID AS SPECIFIED'      18650000
&NOGO    SETB  1                                                        19350000
.NXT     AIF   ('&MSG' EQ '').CODECHK                          @PI06852 20050000
         AIF   ('&MSG'(K'&MSG,1) EQ '''' AND K'&MSG LT 4).MSGERR        20750000
         AIF   ('&MSG'(K'&MSG,1) NE '''' AND K'&MSG GT 8).MSGERR        21450000
         AIF   ('&MSG'(K'&MSG,1) NE '''').CODECHK                       22150000
         AIF   (NOT &IEDQZA(9)).TCAMMSG                             TSO 22850000
         IEDQCHAR 52,&MSG                                           TSO 23550000
         AGO   .ERRCHK                                              TSO 24250000
.TCAMMSG IEDQCHAR 255,&MSG                                     @PI06853 24950000
.ERRCHK  AIF   (&IEDQZA(24)).MSGERR                                     25650000
         AIF   (&IEDQZD LE 255).CODECHK                        @PI06853 26350000
         AIF   (NOT &IEDQZA(9)).MSGERR                                  27050000
         AIF   (&IEDQZD LE 52).CODECHK                              TSO 27750000
.MSGERR  MNOTE 12,'***  IHB300  MESSAGE OPERAND INVALID AS SPECIFIED'   28450000
&NOGO    SETB  1                                                        29150000
.CODECHK AIF   ('&CODE' EQ 'NO' OR '&CODE' EQ 'NONE' OR '&CODE' EQ '').*29850000
               AND                                                      30550000
         AIF   ('&MSG' NE '').CDEOK        CODE= + MSG= IS OK  @YM06037 30650000
         MNOTE 4,'*** IED930 *** CODE OPERAND INVALID, IGNORED'         30700082
         AGO   .AND                                            @YM06037 30850000
.CDEOK   ANOP                                                  @YM06037 30950000
&LEN     SETA  &LEN+4                   ADJUST FOR TABLE ADDR  @Y17XANQ 31250000
         AIF   (K'&CODE GT 8).CMN                                       31950000
.USER    AIF   (&IX GT 19).USERTAB                                      32650000
         AIF   ('&CODE' EQ '&IN(&IX)').AND                              33350000
&IX      SETA  &IX+1                                                    34050000
&T       SETA  &T+1                                                     34750000
         AGO   .USER                                                    35450000
.USERTAB AIF   (('&CODE'(1,1) GE 'A' AND '&CODE'(1,1) LE 'Z') OR '&CODE*36150000
               '(1,1) EQ '$' OR '&CODE'(1,1) EQ '#' OR '&CODE'(1,1) EQ *36850000
               '@').AND                                                 37550000
.CMN     MNOTE 12,'***  IHB300  CODE OPERAND INVALID AS SPECIFIED'      38250000
&NOGO    SETB  1                                                        38950000
.AND     AIF   ('&CONNECT' EQ 'AND' OR '&CONNECT' EQ 'OR').OP           39650000
         MNOTE 12,'***  IHB300  CONNECT OPERAND INVALID AS SPECIFIED'   40350000
&NOGO    SETB  1                                                        41050000
.OP      AIF   ('&RH' EQ '').RHOK       RH= NOT SPECIFIED      @Y17XANQ 41750000
&LEN     SETA  &LEN+4                   ADJUST FR RH POINTER   @Y17XANQ 42450000
&FLG     SETA  &FLG+64                  INDICATE RH= (X'40')   @Y17XANQ 43150000
         AIF   ('&RH'(K'&RH,1) NE '''').RHOK   RH=LABEL        @Y17XANQ 43850000
         AIF   ((K'&RH GE 6) AND (('&RH'(1,2) EQ 'X''' AND K'&RH EQ 9) *44550000
               OR ('&RH'(1,4) EQ 'XL6''' AND K'&RH EQ 11) OR ('&RH'(1,2*45250000
               ) EQ 'C''' AND K'&RH EQ 6))).RHOK               @Y17XANQ 45950000
         AIF   ('&RH'(1,4) EQ 'CL3''' AND  K'&RH EQ 8).RHOK    @Y17XANQ 46650000
         MNOTE 12,'***  IHB300  RH OPERAND INVALID AS SPECIFIED'        47350000
&NOGO    SETB  1                                               @Y17XANQ 48050000
.RHOK    AIF   (&NOGO).MEND                                    @Y17XANQ 48750000
&ALG     SETB  ('&CONNECT' NE 'OR')     SET FLAG IF 'AND'      @Y17XANQ 49450000
         AIF   (&IEDQZA(9)).TSO                                @Y17XANQ 50150000
         IEDQVCON 6,IEDQBL                                              50850000
&A       SETA  6                                                    TSO 51550000
         AGO   .NOTSO                                               TSO 52250000
.TSO     IEDQVCON 44,IEDAYM                                         TSO 52950000
&A       SETA  44                                                   TSO 53650000
.NOTSO   AIF   (NOT &IEDQZA(1)).PARM                                    54350000
&IEDQZA(18) SETB 1                                                      55050000
.PARM    AIF   ('&MASK' NE '0' AND '&MASK' NE 'X''0000000000''' AND '&M*55750000
               ASK' NE 'XL5''0000000000''' AND '&MASK' NE 'XL5''0''' AN*56450000
               D '&MASK' NE 'XL5''00''' AND '&MASK' NE '').SKP @SA72488 57150000
&BIT     SETB  1                                                        57850000
&LEN     SETA  &LEN-4                   ADJUST FOR NO MASK     @Y17XANQ 58550000
.SKP     AIF   ('&CODE' NE '').X00                             @Y17XANQ 59250000
&FLG     SETA  &FLG+128                 CODE OMITTED - (X'80') @Y17XANQ 59950000
         AGO   .SET                                            @Y17XANQ 60650000
.X00     AIF   ('&CODE' NE 'NO' AND '&CODE' NE 'NONE').SET     @Y17XANQ 61350000
&FLG     SETA  &FLG+16                  CODE=NO OR NONE (X'10')@Y17XANQ 62050000
.SET     ANOP                                                  @Y17XANQ 62750000
&NAME    DS    0H                                              @YM07267 62850000
      AIF   (&IEDQRN(5) OR (NOT &IEDQZA(1)) OR (NOT &IEDQRN(4))).OLDGEN 62900000
&IEDQRN(5) SETB 1                       INDICATE FIRST TIME    @YM07267 63150000
         IEDRESP                                                        63250000
.OLDGEN  DC    AL1((&IEDQZE(&A)+&BIT),(&LEN+&ALG),(&FLG))      @YM07267 63450000
         AIF   (NOT &BIT).S                                    @Y17XANQ 64150000
         DC    AL1(0)                                                   64850000
         AGO   .MSG                                                     65550000
.S       AIF   ('&MASK'(1,1) EQ 'X').DC                                 66250000
         DC    FL5'&MASK' .             ERROR MASK                      66950000
         AGO   .MSG                                                     67650000
.DC      DC    &MASK .                  ERROR MASK                      68350000
.MSG     AIF   ('&MSG' EQ '').RHG                              @PI06852 69050000
         AIF   ('&MSG'(K'&MSG,1) EQ '''').SPLIT                @PI06852 69350000
         DC    AL4(&MSG) .              ADDRESS OF MESSAGE              69750000
         AGO   .CODE1                                                   70450000
.SPLIT   ANOP                                                           71150000
IEDQMISC CSECT                                                          71850000
         DC    AL1(&IEDQZD),&MSG                                        72550000
&C       CSECT                                                          73250000
         DC    AL4(IEDQMISC+&IEDQZK)                                    73950000
&IEDQZK  SETA  &IEDQZK+1+&IEDQZD                                        74650000
.CODE1   AIF   ('&CODE' EQ 'NO' OR '&CODE' EQ 'NONE' OR '&CODE' EQ '').*75350000
               RHG                                             @Y17XANQ 76050000
         AIF   (&IX GT 19).USERTBL                                      76750000
&C       SETC  'IEDQ'.'&T'                                              77450000
         DC    V(&C) .                  STANDARD TABLE                  78150000
         AGO   .RHG                                                     78850000
.USERTBL DC    A(&CODE) .               ADDRESS OF SPECIAL TABLE        79550000
.RHG     AIF   ('&RH' EQ '').MEND                              @Y17XANQ 80250000
         AIF   ('&RH'(K'&RH,1) EQ '''').RHM                    @Y17XANQ 80950000
         DC    A(&RH)                   RH DATA ADDRESS        @Y17XANQ 81650000
         AGO   .MEND                                           @Y17XANQ 82350000
.RHM     ANOP                                                  @Y17XANQ 83050000
IEDQMISC CSECT                                                 @Y17XANQ 83750000
         DC    &RH                      RH DATA                @Y17XANQ 84450000
&C       CSECT                                                 @Y17XANQ 85150000
         DC    A(IEDQMISC+&IEDQZK)      RH DATA ADDRESS        @Y17XANQ 85850000
&IEDQZK  SETA  &IEDQZK+3                                       @Y17XANQ 86550000
.MEND    SPACE 2                                                        87250000
         MEND                                                           92700020
