         MACRO                                                          01000020
&NAME    MSGLIMIT &LIM                                                  02000020
         GBLA  &IEDQZE(64)                                              03000020
         GBLB  &IEDQZA(64)                                              04000020
         LCLB  &INBLK                                            S22025 04600022
.*       VERSION DATED JANUARY 10,1973                          SA59976 05200010
.*C052000,079000                                                 S22029 05400022
.*D063000-072000                                                 S22029 05600022
.*A274000,282000,360000                                         SA59976 05700010
.*D278000,286000,292000,296000-298000,366000                    SA59976 05800010
.*C052000                                                       SA59976 05900010
         SPACE                                                          06000020
         AIF   (&IEDQZA(3) OR &IEDQZA(4) OR &IEDQZA(14)).CHECK   S22029 07900022
         MNOTE 12,'*** IHB070 SEQUENCE ERROR-MUST FOLLOW INHDR,OUTHDR  C08600022
               OR INBLOCK MACRO'                                 S22025 09300022
         AGO   .MEND                                                    10000020
.CHECK   AIF   ('&LIM' NE '').LIMCHK                                    11000020
         MNOTE 12,'***  IHB001  LIMIT OPERAND REQ''D-NOT SPECIFIED'     12000020
         AGO   .MEND                                                    13000020
.LIMCHK  AIF   (K'&LIM GT 8).LIMERR                                     14000020
         AIF   ('&LIM'(K'&LIM,1) EQ ')').LIMERR                         16000020
         AIF   ('&LIM'(K'&LIM,1) EQ '''' AND '&LIM'(1,1) NE 'X').LIMERR 17000020
         AIF   ('&LIM' EQ '' OR '&LIM' EQ '0').LIMERR                   18000020
         AIF   ('&LIM'(K'&LIM,1) NE '''' AND (('&LIM'(1,1) GE 'A' AND '*18600020
               &LIM'(1,1) LE 'Z') OR '&LIM'(1,1) EQ '@' OR '&LIM'(1,1) *19200020
               EQ '#' OR '&LIM'(1,1) EQ '$')).ORG                       19800020
         AIF   ('&LIM' EQ 'X''00''' OR '&LIM' EQ 'X''0''' OR '&LIM' EQ *20400020
               'XL1''00''' OR '&LIM' EQ 'XL1''0''').LIMERR              21000020
         IEDQMASK &LIM,1                                                22000020
         AIF   (NOT &IEDQZA(24)).ORG                                    23000020
.LIMERR  MNOTE 12,'***  IHB300  LIMIT OPERAND INVALID AS SPECIFIED'     24000020
         AGO   .MEND                                                    25000020
.ORG     AIF   ('&NAME' EQ '').NON                                      26000020
&NAME    DS    0H                                                       27000020
.NON     ANOP                                                    S22025 27200022
&INBLK   SETB  (&IEDQZA(14))                                     S22025 27400022
         L     1,IEDADBUF .             BUFFER ADDRESS          SA59976 27500010
         AIF   (NOT &INBLK).NOINBLK                              S22025 27600022
         TM    8(1),X'40' .             IS THIS A HDR CHGD TO TXTS22025 28000022
         BO    *+12 .                   YES, EXECUTE MSGLIMIT    S22025 28200022
.NOINBLK ANOP                                                   SA59976 28300010
         TM    20(1),X'81' .            HEADER BUFFER            S22025 28400022
         AIF   ('&LIM'(1,1) EQ 'X' AND '&LIM'(K'&LIM,1) EQ '''').XLIM   28800022
         AIF   ('&LIM'(1,1) GE '0' AND '&LIM'(1,1) LE '9').XLIM         29000020
         BNZ   *+50 .                   NO                       S22025 29400022
         IEDQVCON (31,20),(IEDQAE,IEDQAG)                               30000020
.LOC     LOCOPT &LIM                                                    31000020
         AIF   (&IEDQZA(61)).MEND                                       32000020
         LTR   1,15 .                   OPTION FIELD FOUND              33000020
         LA    15,4 .                   SET RETURN                      34000020
         BZ    *+26 .                   NO - DO NOT EXECUTE             35000020
         MVC   *+11(1),0(1) .           MOVE LIMIT TO LIST              36000020
         AGO   .NOTINB                                          SA59976 36100010
.XLIM    ANOP                                                    S22025 36300022
         BNZ   *+20 .                   NO                       S22025 36900022
.NOTINB  ANOP                                                    S22025 37200022
         BAL   1,*+6                                             S22025 37500022
         DC    AL1(0)                                                   38000020
.SET     AIF   ('&LIM'(K'&LIM,1) EQ '''').X                             39000020
         DC    AL1(&LIM) .              LIMIT VALUE                     40000020
         AGO   .LOAD                                                    41000020
.X       DC    &LIM .                   LIMIT VALUE                     42000020
.LOAD    L     15,IEDMSGS-1 .           TO LIMIT ROUTINE                43000020
         IEDQVCON 20,IEDQAG                                             44000020
         L     15,&IEDQZE(20)(,15)                                      45000020
         BALR  14,15                                                    46000020
.MEND    SPACE 2                                                        47000020
         MEND                                                           49000020
