         MACRO                                                          00900020
&NAME    MSGTYPE &PAR,&BLANK=YES,&TABLE=,&EXIT=                  S22027 01800022
.*A031000,198200-206600                                          S22027 02100022
.*C018000,164000                                                 S22027 02400022
.*C198880-198920                                                SA56318 02400122
.*D045000,063000,199960,200080,495000-882000                   @OZ38203 02400282
.*C154000,203000-203400,203880-203960,204120                   @OZ38203 02400382
.*C202800                                                      @OZ41384 02400482
         GBLA  &IEDQZD                                                  02700020
         GBLA  &IEDQZE(64)                                       S22027 03100022
         GBLB  &IEDQZA(64)                                              03600020
         GBLC  &IEDQZB,&IEDQZC,&IEDQZJ                                  05400020
         LCLA  &CNT                                                     07200020
         LCLB  &NOGO                                                    08100020
         LCLC  &TEMP                                                    09000020
.*             VERSION DATED JUNE 7, 1972                        S22027 09900022
         SPACE                                                          10800020
         AIF   (NOT &IEDQZA(9)).TSOCHK                              TSO 11700020
         MNOTE 12,'***  IHB312  MUST FOLLOW STARTMH MACRO WITH TSOMH=NO*12600020
               '                                                        13500020
         AGO   .END                                                 TSO 14400020
.TSOCHK  ANOP                                                           15400082
         AIF   (&IEDQZA(3) OR &IEDQZA(4)).CKTABLE                S22027 16400022
         MNOTE 12,'***  IHB070  SEQUENCE ERROR-MUST FOLLOW INHDR OR OUT*18000020
               HDR MACRO'                                               18900020
         AGO   .MEND                                                    19800020
.CKTABLE ANOP                                                    S22027 19820022
         AIF   ('&TABLE' EQ '' AND '&EXIT' EQ '').CHECK          S22027 19840022
         AIF   ('&TABLE' NE '').TABCHAR                          S22027 19844022
         MNOTE 12,'***  IHB001  TABLE OPERAND REQUIRED - NOT SPECIFIED' 19848022
.*                                                               S22027 19852022
         AGO   .CKEXIT                                           S22027 19856422
.TABCHAR ANOP                                                    S22027 19856822
         AIF   ('&TABLE'(1,1) LE 'Z').CKEXIT                     S22027 19857822
         MNOTE 12,'***  IHB300  TABLE OPERAND INVALID AS SPECIFIED'     19859222
.CKEXIT  ANOP                                                    S22027 19860022
         AIF   ('&EXIT' NE '').EXCHAR                            S22027 19864022
         MNOTE 12,'***  IHB001  EXIT OPERAND REQUIRED - NOT SPECIFIED'  19868022
.*                                                               S22027 19872022
         AGO   .CKPAR                                            S22027 19876422
.EXCHAR  ANOP                                                    S22027 19876822
         AIF   ('&EXIT'(1,1) LE 'Z').CKPAR                       S22027 19877822
         MNOTE 12,'***  IHB300  EXIT OPERAND INVALID AS SPECIFIED'      19879222
.CKPAR   ANOP                                                    S22027 19880022
         AIF   ('&PAR' EQ '').CKBLANK                            S22027 19884022
         MNOTE 12,'*** IED905 MSGTYPE OPERAND INCONSISTENT WITH TABLE O*19888022
               R EXIT OPREAND'                                  SA56318 19894022
.CKBLANK ANOP                                                    S22027 19900022
         AIF   ('&BLANK' NE 'YES' AND '&BLANK' NE '').CKNO       S22027 19910022
&IEDQZE(40) SETA 0                                               S22027 19920022
         AGO   .CKNOGO                                           S22027 19924022
.CKNO    ANOP                                                    S22027 19928022
         AIF   ('&BLANK' EQ 'NO').SET2                           S22027 19932022
         MNOTE 12,'***  IHB300  BLANK OPERAND INVALID AS SPECIFIED'     19936022
.*                                                               S22027 19940022
         AGO   .CKNOGO                                           S22027 19948022
.SET2    ANOP                                                    S22027 19952022
&IEDQZE(40) SETA 2                                               S22027 19960022
.CKNOGO  ANOP                                                    S22027 19970022
         AIF   (NOT &IEDQZA(20)).EXPAND                          S22027 19981022
         AIF   (&IEDQZA(4)).SEND                                 S22027 19982022
         B     &IEDQZB                                           S22027 19983022
         AGO   .DS                                               S22027 19984022
.SEND    B     &IEDQZC                                           S22027 19985022
.DS      ANOP                                                    S22027 19986022
&IEDQZJ  DS    0H                                                S22027 19987022
&IEDQZA(20) SETB 0                                               S22027 19988022
&IEDQZJ  SETC  ''                                                S22027 19989022
.EXPAND  ANOP                                                    S22027 19990022
&NAME    DS    0H                                                S22027 20002022
         CNOP  0,4                                               S22027 20014022
         BAL   1,*+16 .                 BRANCH AROUND DCS        S22027 20020022
         DC    A(&TABLE) .              ADDR OF TYPETABLE        S22027 20040022
         DC    A(&EXIT) .               ADDR OF NO MATCH EXIT    S22027 20060022
         DC    AL1(&IEDQZE(30)+&IEDQZE(40)) . INDEX TO IEDQAI    S22027 20080022
         DC    AL1(4) .                 LENGTH OF PARM LIST      S22027 20100022
         DC    AL1(16)                  REG 15 OFFSET            S22027 20120022
         DC    AL1(1) .                 LNTH OF SCAN             S22027 20140022
         LA    1,8(,1) .                POINT R1 TO AI PARM      S22027 20160022
         L     15,IEDUI .               LOAD UI ADDR             S22027 20180022
         BALR  14,15 .                  GO TO IEDQAI             S22027 20200022
         LA    0,8 .                    LOAD OFFSET TO AI PARM   S22027 20220022
         SR    1,0 .                    POINT R1 TO BEGIN PARM   S22027 20240022
         LTR   15,15 .                  COMPLETED OKAY           S22027 20260022
         BNP   *+42                     BRANCH IF NOT          @OZ41384 20280082
         L     14,IEDADBUF  .           GET BUFR ADR           @OZ39203 20300082
         STH   15,24(,14)  .            PUT SCAN IN BUFR       @OZ39203 20310082
         LA    15,11(15,14)             GET SCAN PNTR ADR      @OZ39203 20320082
         L     14,0(,1) .               GET TABLE ADDR           S22027 20360022
         TM    3(14),1 .                LAST ENTRY               S22027 20380022
         BNO   *+26 .                   BRANCH IF NOT          @OZ39203 20388082
         L     14,IEDADBUF              GET BUFR ADR           @OZ39203 20392082
         LH    15,24(,14)  .            GET SCAN PNTR          @OZ39203 20396082
         BCTR  15,0 .                   RESET PNTR BACK 1        S22027 20404022
         STH   15,24(,14)  .            PUT SCAN IN BUFR       @OZ30203 20412082
         L     14,4(,1) .               GET NO MATCH EXIT        S22027 20420022
         B     *+26 .                   DEPART                   S22027 20440022
         CLC   0(1,14),0(15) .          COMP SCANNED TO TABLE    S22027 20460022
         BE    *+12 .                   MATCHED                  S22027 20480022
         LA    14,4(14) .               BUMP PNTR TO NEXT ENTRY  S22027 20500022
         B     50(,1) .                 GO TO COMPARE            S22027 20520022
         L     14,0(,14) .              GET USER RTNE            S22027 20540022
         AIF   (&IEDQZA(4)).OUT                                  S22027 20560022
         LA    2,&IEDQZB .              ADR OF NEXT SUBGROUP     S22027 20580022
         AGO   .USER                                             S22027 20600022
.OUT     LA    2,&IEDQZC .              ADR OF NEXT SUBGROUP     S22027 20620022
.USER    BR    14 .                     GO TO USER RTNE          S22027 20640022
         MEXIT                                                   S22027 20660022
.CHECK   AIF   ('&PAR' EQ '').SET                                       20700020
         IEDQCHAR 8,&PAR                                                21600020
         AIF   (&IEDQZA(24)).ERR                                        22500020
         AIF   (&IEDQZD GT 8).ERR                                       23400020
         AGO   .SET                                                     24300020
.ERR     MNOTE 12,'***  IHB300  TYPE OPERAND INVALID AS SPECIFIED'      25200020
         AGO   .MEND                                                    26100020
.SET     AIF   (NOT &IEDQZA(20)).PARM                                   27000020
         AIF   (&IEDQZA(4)).SND                                         27900020
         B     &IEDQZB                                                  29700020
         AGO   .EX                                                      30600020
.SND     B     &IEDQZC                                                  31500020
.EX      AIF   ('&IEDQZJ' EQ '').PARM                                   32400020
&IEDQZJ  DS    0H                                                       33300020
.PARM    ANOP                                                           34200020
&IEDQZJ  SETC  'IEDX'.'&SYSNDX'                                         35100020
         AIF   ('&NAME' EQ '').FT                                       36000020
&NAME    DS    0H                                                       36900020
.FT      AIF   ('&PAR' EQ '').MEND                                      37800020
.SCN     IEDQSCAN &IEDQZD,&PAR,&BLANK                                   38700020
         AIF   (&IEDQZA(24)).MEND                                       39600020
         LTR   15,15                                                    40500020
         BNP   &IEDQZJ                                                  42500020
         L     1,IEDADBUF .             GET BUFFER ADDRESS              44500020
         STH   15,24(,1) .              PUT SCAN IN BUFFER              46800020
.MEND    SPACE 2                                                        47700020
&IEDQZA(20) SETB 1                                                      48600020
.END     MEND                                                           89100020
