         MACRO                                                          00020000
&NAME    NOTE  &DCB,&DUMMY=                                             00040017
         AIF   ('&DCB' EQ '').ERR                                       00060000
&NAME    IHBINNRA &DCB                                                  00080000
         L     15,84(0,1)                        LOAD NOTE  RTN ADDRESS 00100000
         BALR  14,15                             LINK TO NOTE  ROUTINE  00120000
         MEXIT                                                          00140000
.ERR     IHBERMAC 6                                                     00160000
         MEND                                                           00180000
