         MACRO                                                          00020000
&NAME    OBTAIN &LIST,&DUMMY=                                           00040017
         AIF   (T'&LIST EQ 'O').E1                                      00060000
&NAME    IHBINNRA &LIST                 LOAD REG 1                      00080019
         SVC   27                       ISSUE OBTAIN SVC                00100019
         MEXIT                                                          00120019
.E1      IHBERMAC 34                    LIST ADDR MISSING               00140019
         MEND                                                           00160000
