         MACRO                                                          00700016
&NAME    ONLTST &DECB=,&X=,&Y=,&DCB=,&AREA=,&TEXT=,&LENGTH=,&ENTRY=,   X01400016
               &RLN=                                                    02100016
         LCLB  &S1,&S2,&S3,&S4                                          02800016
         AIF   ('&DECB' EQ '').MNOTE8                                   03500016
         AIF   ('&X' EQ '' OR '&Y' EQ '').MNOTE1                        04200016
         AIF   ('&AREA' EQ '').MNOTE3                                   04900016
         AIF   ('&Y'(1,1) EQ '(').CHKX                                  05600016
         AIF   (&Y LT 1 OR &Y GT 99).MNOTE2                             06300016
.CHKX    AIF   ('&X'(1,1) EQ '(').CKTXT                                 07000016
         AIF   (&X LT 0 OR &X GT 22).MNOTE2                        000L 07700019
&S1      SETB  (&X EQ 0)                                                08400016
&S2      SETB   (&X EQ 1)                                               09100016
&S3      SETB  ('&TEXT' EQ '')                                          09800016
&S4      SETB  ('&LENGTH' EQ '')                                        10500016
         AIF   (&S1 AND (&S3 OR &S4)).MNOTE5                            11200016
         AIF   (&S2 AND (&S3 OR &S4)).MNOTE5                            11900016
         AIF   (NOT &S3 AND NOT (&S2 OR &S1)).MNOTE7                    12600016
         AIF   (NOT &S4 AND NOT (&S2 OR &S1)).MNOTE7                    13300016
         AIF   (NOT (&S1 OR &S2)).KEEPGO                                14000016
.CKTXT   ANOP                                                           14700016
         AIF   (&S3 AND NOT &S4).MNOTE6                                 15400016
         AIF   (&S4 AND NOT &S3).MNOTE6                                 16100016
.KEEPGO  AIF   ('&DECB'(1,1) EQ '(').DECBREG      FIND DECB ADDRESS     16800016
&NAME    LA    1,&DECB                                                  17500016
         AGO   .NEXT                                                    18200016
.DECBREG AIF   ('&DECB' EQ '(1)').NAMEIT                                18900016
&NAME    LR    1,&DECB(1)                                               19600016
         AGO   .NEXT                                                    20300016
.NAMEIT  AIF   ('&NAME' EQ '').NEXT                                     21000016
&NAME    DS    0H                                 DUMMY STMT FOR NAME   21700016
.NEXT    AIF   ('&X'(1,1) EQ '(').XREG                                  22400016
         AIF   ('&X'(1,1) GE '0').LOADX                                 23100016
         B     *+6                                                      23800016
         DC    AL2(&X)                            CREATE DC IF CHAR-EXP 24500016
         MVC   4(1,1),*-1                                               25200016
         AGO   .YNEXT                                                   25900016
.XREG    ANOP                                                           26600016
         STC   &X(1),4(1)                         STORE X INTO DECB     27300016
         AGO   .YNEXT                                                   28000016
.LOADX   ANOP                                                           28700016
         MVI   4(1),&X                           GET ABSOLUTE VALUE &   29400016
.YNEXT   AIF   ('&Y'(1,1) EQ '(').YREG            IS Y VALUE IN REG     30100016
         AIF   ('&Y'(1,1) GE '0').LOADY                                 30800016
         B     *+6                                                      31500016
         DC    AL2(&Y)                                                  32200016
         MVC   5(1,1),*-1                         MOVE Y INTO DECB      32900016
         AGO   .DCB                                                     33600016
.YREG    ANOP                                                           34300016
         STC   &Y(1),5(1)                        STORE Y VALUE ON DECB  35000016
         AGO   .DCB                                                     35700016
.LOADY   ANOP                                                           36400016
         MVI   5(1),&Y                           STORE Y VALUE IN DECB  37100016
.DCB     ANOP                                                           37800016
         AIF   ('&DCB' EQ '').AREA                IS DCB PARAM OMITTED  38500016
         AIF   ('&DCB'(1,1) EQ '(').DCBRG         IS DCB PARAM IN REG   39200016
         LA    14,&DCB                            GET ADDRESS IN REG    39900016
         ST    14,8(0,1)                            AND STORE IN DECB   40600016
         AGO   .AREA                                                    41300016
.DCBRG   ANOP                                                           42000016
         ST    &DCB(1),8(0,1)                     STORE DCBADDR IN DECB 42700016
.AREA    ANOP                                                           43400016
         AIF   ('&AREA'(1,1) EQ '(').AREAREG                            44100016
         LA    14,&AREA                                                 44800016
         ST    14,12(0,1)                           AND STORE IN DECB   45500016
         AGO   .TEXT                                                    46200016
.AREAREG ANOP                                                           46900016
         ST    &AREA(1),12(0,1)                   STORE AREA IN DECB    47600016
.TEXT    ANOP                                                           48300016
         AIF   ('&TEXT' EQ '').ENTRY              IS TEXT PARAM OMITTED 49000016
         AIF   ('&TEXT'(1,1) EQ '(').TEXTREG      IS TEXT IN REGISTER   49700016
         LA    14,&TEXT                                                 50400016
         ST    14,36(0,1)                           AND STORE IN DECB   51100016
         AGO   .LENGTH                                                  51800016
.TEXTREG ANOP                                                           52500016
         ST    &TEXT(1),36(0,1)                   STORE TXTADDR IN DECB 53200016
.LENGTH  ANOP                                                           53900016
         AIF   ('&LENGTH' EQ '').ENTRY                                  54600016
         AIF   ('&LENGTH'(1,1) EQ '(').LNGREG     IS LENGTH IN REGISTER 55300016
         AIF   ('&LENGTH'(1,1) GE '0').LOADLNG    IS LNGTH SELF-DEFINED 56000016
         B     *+6                                                      56700016
         DC    AL2(&LENGTH)                                             57400016
         MVC   6(2,1),*-2                           AND MOVE INTO DECB  58100016
         AGO   .ENTRY                                                   58800016
.LNGREG  ANOP                                                           59500016
         STH   &LENGTH(1),6(1)                    STORE LENGTH VALUE    60200016
         AGO   .ENTRY                               INTO DECB           60900016
.LOADLNG ANOP                                                           61600016
         LA    14,&LENGTH                         GET LENGTH VALUE IN   62300016
         STH   14,6(1)                              REG AND STORE       63000016
.ENTRY   ANOP                                                           63700016
         AIF   ('&ENTRY' EQ '').RLN               ENTRY OPERAND OMITTED 64400016
         AIF   ('&ENTRY'(1,1) EQ '(').ENTRYRG     ENTRY OPERAND IN REG  65100016
         LA    14,&ENTRY                                                65800016
         ST    14,20(1)                             AND STORE IN DECB   66500016
         AGO   .RLN                                                     67200016
.ENTRYRG ANOP                                                           67900016
         ST    &ENTRY(1),20(1)                    STORE ENTRY INTO DECB 68600016
.RLN     ANOP                                                           69300016
         AIF   ('&RLN' EQ '').NEAREND             IS RLN OMITTED        70000016
         AIF   ('&RLN'(1,1) EQ '(').RLNREG        IS RLN IN REGISTER    70700016
         MVI   25(1),&RLN                        STORE RLN IN DECB      71400016
         AGO   .NEAREND                                                 72100016
.RLNREG  ANOP                                                           72800016
         STC   &RLN(1),25(1)                      STORE RLN IN DECB     73500016
.NEAREND ANOP                                                           74200016
         CNOP  0,4                                                      74900016
         BAL   14,*+8                                                   75600016
         DC    V(IECTONLT)                        ADDR OF ONLTST LOGIC  76300016
         L     15,0(14)                                                 77000016
         BALR  14,15                              GO TO ONLTST LOGIC    77700016
         AGO   .END                                                     78400016
.MNOTE1  MNOTE 12,'*** IHB001  X AND/OR Y OPERAND REQ''D - NOT SPECIFIE*79100021
               D'                                                       79800016
         MEXIT                                                          80500016
.MNOTE2  MNOTE 12,'***  IHB100  X OR Y PARAMETER NOT WITHIN ALLOWABLE VX81200016
               ALUE RANGE'                                              81900016
         MEXIT                                                          82600016
.MNOTE3  MNOTE 12,'***  IHB001  AREA OPERAND REQ''D - NOT SPECIFIED'    83300021
         MEXIT                                                          84000016
.MNOTE5  MNOTE 12,'***  IHB103  TEXT OR LENGTH MISSING WHEN X=0 OR X=1' 84700016
         MEXIT                                                          85400016
.MNOTE6  MNOTE 1,'***  IHB104  TEXT OR LENGTH MISSING'                  86100016
         AGO   .KEEPGO                                                  86800016
.MNOTE7  MNOTE 1,'***  IHB105  X GREATER THAN 1. TEXT AND LENGTH PARAMEX87500016
               TERS IGNORED'                                            88200016
         AGO    .KEEPGO                                                 88900016
.MNOTE8  MNOTE 12,'***  IHB001  DECB OPERAND REQ''D - NOT SPECIFIED'    89600021
         MEXIT                                                          90300016
.END     MEND                                                           91000016
