         MACRO                                                          02000013
&NAME    OPTION  &T,&TYP=(H,Y,S,V,Q,A,E,F,D,Z,P,X,C,B),&CN=(2,2,2,4,4,4X02800020
               ,4,4,8,0,0,0,0,0),                                      X03600020
               &CH=(230,194,196,200,208,193,128,240,129,1,64,228,0,226) 04400020
         GBLA  &IEDQAR(64)                                              05200020
         GBLA  &OPTCT,&ACLOCX(21),&TSIZE                                06000013
         GBLC  &OPTYPE(20)                                              08000013
         GBLC  &IEDQOP(255),&IEDQSV(8)                                  08500020
         GBLB  &IEDQZA(64)                                              09000020
         LCLA  &L,&M,&N,&P                                              09500020
         LCLA  &WKA                                                     10000013
         LCLB  &NOGO                                                    12000013
         LCLC  &WKC                                                     14000013
         LCLC  &Q,&R                                                    14200020
.* 028000-052000,085000-095000,142000,150100-157400,220000        20002 14400010
.* 380000-460000,520000,640000,668000-676000,692000,820000-840000 20002 14400110
.* 466000-490000,640000,668000-692000                            A27843 14400210
.*C153500                                                        Y05330 14400310
.*D153300,153400                                                 Y05330 14400410
         AIF   (NOT &IEDQZA(7)).CQTAM                             20002 15010020
         AIF   (&IEDQZA(55) NE &IEDQZA(54)).OK                    20002 15020020
         MNOTE 12,'*** IHB311 OPTION MACRO OUT OF SEQUENCE'             15030020
         MEXIT                                                          15040020
.OK      AIF   (&IEDQAR(3) NE 254).OK4                            20002 15050020
         MNOTE 12,'*** IHB316 MAXIMUM NUMBER OF OPTION FIELDS EXCEEDED' 15060020
         MEXIT                                                          15070020
.OK4     AIF   ('&T' EQ '' OR '&NAME' EQ '').ERR1                 20002 15080020
&R       SETC  ''''                                               20002 15090020
.LP      AIF   (&N EQ N'&TYP).ERI                                 20002 15100020
&N       SETA  &N+1                                               20002 15110020
         AIF   ('&T'(1,1) NE '&TYP(&N)').LP                       20002 15120020
&L       SETA  &CN(&N)                                            20002 15130020
         AIF   (&N LT 2 OR &N GT 6).QT                            20002 15140020
&R       SETC  '('                                                20002 15150020
.QT      AIF   (K'&T LE 2).CKL                                    20002 15160020
         AIF   ('&T'(2,1) EQ 'L').GETL                            20002 15170020
.CKL     AIF   (&N GT 9).ERQ                                      20002 15180020
.GO      AIF   (&IEDQAR(3) NE 0).ZO                               20002 15190020
&IEDQSV(4) CSECT                                                        15195010
         ORG   IEDOPTPT .                                         20002 15200020
         DC    A(IEDQOPT) .             ADDRESS OF OPTION TABLE   20002 15210020
         ORG                                                            15220020
IEDQOPT  CSECT                                                          15230020
         DC    A(IEDQOPTN) .            END OF OPTION TABLE       20002 15240020
         DC    A(IEDQOPC) .             OPTION TABLE LOOK UP      20002 15250020
.ZO      SPACE 2 .                                                20002 15260020
&IEDQAR(3)  SETA  &IEDQAR(3)+1                                    20002 15270020
IEDQOPC  CSECT                                                          15280020
&NAME    EQU   &IEDQAR(3) .                                       20002 15290020
&IEDQAR(15) SETA &IEDQAR(15)+&L                                   20002 15300020
&L       SETA  &L-1                                               20002 15310020
&M       SETA  &CH(&N)                                            20002 15320020
         DC    AL1(&L,&M),CL8'&NAME'                             Y05330 15350010
IEDQTRMC CSECT                                                          15360010
&L       SETA  K'&T                                               20002 15370020
&Q       SETC  '&L'                                               20002 15380020
&IEDQOP(&IEDQAR(3))  SETC   '&Q'.'&T'.'&R'                        20002 15390020
         SPACE 2 .                                                20002 15400020
         MEXIT                                                          15410020
.GETL    AIF   (K'&T LT 3).ERX                                    20002 15420020
         AIF   ('&T'(3,1) NE '.').CN                              20002 15430020
         AIF   (&N GE 2 AND &N LE 5).ERX                          20002 15440020
&M       SETA  1                                                  20002 15450020
.CN      AIF  (K'&T LT &M+3).ERX                                  20002 15460020
&L       SETA  1                                                  20002 15470020
.CL      AIF   ('&T'(&M+&L+2,1) GT '9' OR '&T'(&M+&L+2,1) LT '0').ERX   15480020
&L       SETA  &L+1                                               20002 15490020
         AIF   (&L LE K'&T-&M-2).CL                               20002 15500020
&Q       SETC  '&T'(&M+3,K'&T-&M-2)                               20002 15510020
&L       SETA  &Q                                                 20002 15520020
         AIF   (&M EQ 0).CK1                                      20002 15530020
&L       SETA  (&L+7)/8                                           20002 15540020
.CK1     AIF   (&L LE 0).ERX                                      20002 15550020
         AIF   (&L GT 256).ERX                                    20002 15560020
         AIF   (&N GE 12).GO                                      20002 15570020
         AIF   (&L GT 16).ERX                                     20002 15580020
         AIF   (&N GE 10).GO                                      20002 15590020
         AIF   (&L GT 8).ERX                                      20002 15600020
         AIF   (&N GE 7 OR &N EQ 1).GO                            20002 15610020
         AIF   (&L GT 4).ERX                                      20002 15620020
         AIF   (&N GE 5).GO                                       20002 15630020
         AIF   ((&N EQ 3 AND &L EQ 2) OR (&N EQ 4 AND (&L EQ 3 OR &L EQX15640020
                4)) OR (&N EQ 2 AND &L LE 2)).GO                  20002 15650020
.ERX     MNOTE 12,'*** IHB308 INVALID LENGTH QUALIFIER SPECIFIED'       15660020
         MEXIT                                                          15670020
.ERR1    MNOTE 12,'*** IHB002 REQUIRED OPERANDS OMITTED'                15680020
         MEXIT                                                          15690020
.ERQ     MNOTE 12,'*** IHB309 LENGTH QUALIFIER REQUIRED'                15700020
         MEXIT                                                          15710020
.ERI     MNOTE 12,'*** IHB310 INVALID CONSTANT TYPE SPECIFIED'          15720020
         MEXIT                                                          15730020
.CQTAM   ANOP                                                           15740020
         AIF   ('&NAME' NE '').OK1                                      16000013
         MNOTE 12,'***  IHB001  SUBFIELD OPERAND REQ''D-NOT SPECIFIED'  18000013
&NOGO    SETB  1                                                        20000013
.OK1     AIF   ('&T' NE '').OK2                                         22000020
         MNOTE 12,'***  IHB001  TYPE-LENGTH OPERAND REQ''D-NOT SPECIFIEX24000013
               D'                                                       26000013
&NOGO    SETB  1                                                        28000013
.OK2     AIF   ('&SYSECT' EQ 'IECKTERM').OK3                            30000013
         MNOTE 12,'***  IHB070  SEQUENCE ERROR-MUST FOLLOW TERMTBL MACRX32000013
               O'                                                       34000013
&NOGO    SETB  1                                                        36000013
.OK3     AIF   (K'&T EQ 1).HAF                                          38000020
         AIF   (K'&T LT 3 OR K'&T GT 5).ERR                             40000020
         AIF   ('&T'(1,2) EQ 'XL' OR '&T'(1,2) EQ 'CL' OR '&T'(1,2) EQ X41000020
               'BL' OR '&T'(1,2) EQ 'AL' OR '&T'(1,2) EQ 'HL').VAL      42000020
         AIF   ('&T'(1,2) EQ 'EL' OR '&T'(1,2) EQ 'DL' OR '&T'(1,2) EQ X43000020
               'PL' OR '&T'(1,2) EQ 'ZL' OR '&T'(1,2) EQ 'VL').VAL      44000020
         AIF   ('&T'(1,2) EQ 'SL' OR '&T'(1,2) EQ 'YL' OR '&T'(1,2) EQ X45000020
               'FL').VAL                                                46000020
         AGO   .ERR                                                     49000019
.VAL     AIF   (&NOGO).END                                              50000013
&WKC     SETC  '&T'(3,K'&T-2)                                           52000020
&WKA     SETA  &WKC                                                     54000013
&ACLOCX(&OPTCT+2) SETA &ACLOCX(&OPTCT+1)+&WKA                           56000013
         AGO   .GEN                                                     58000013
.HAF     ANOP                                                           60000013
&WKA     SETA  2                                                        62000013
         AIF   ('&T' EQ 'H' OR '&T' EQ 'S' OR '&T' EQ 'Y').CK           64000020
&WKA     SETA  4                                                        66000013
         AIF   ('&T' EQ 'F' OR '&T' EQ 'E' OR '&T' EQ 'A' OR '&T' EQ 'VX66800020
               ').CK                                                    67600020
&WKA     SETA  8                                                        68400019
         AIF   ('&T' EQ 'D').CK                                         69200020
.ERR     MNOTE 12,'***  IHB002  INVALID TYPE-LENGTH OPERAND SPECIFIED'  70000013
         MEXIT                                                          72000013
.CK      AIF   (&NOGO).END                                              74000013
&ACLOCX(&OPTCT+2) SETA (&ACLOCX(&OPTCT+1)+(&WKA+&WKA-1))/&WKA*&WKA      76000013
.GEN     ANOP                                                           78000013
&OPTCT   SETA  &OPTCT+1                                                 80000013
&OPTYPE(&OPTCT) SETC '&T'                                               82000020
&NAME    DS    &T                                                       84000020
.END     MEND                                                           86000013
