         MACRO                                                          01000020
&NAME    OUTHDR &PATH=                                                  02000020
         GBLB  &IEDQZA(64)                                              03000020
         GBLC  &IEDQZC,&IEDQZJ                                          04000020
         LCLB  &NOGO                                                    05000020
.*             VERSION DATED OCTOBER 6, 1970                            06000020
         SPACE                                                          07000020
&IEDQZA(6) SETB 1                                                       08000020
         AIF   (&IEDQZA(46) AND NOT &IEDQZA(28)).SEQ                    09000020
         MNOTE 12,'***  IHB070  SEQUENCE ERROR - MUST FOLLOW STARTMH MA*10000020
               CRO'                                                     11000020
&NOGO    SETB  1                                                        12000020
.SEQ     AIF   (NOT &IEDQZA(1)).TEST                                    13000020
         MNOTE 12,'***  IHB070  SEQUENCE ERROR - MUST NOT FOLLOW INCOMI*14000020
               NG DELIMITER'                                            15000020
&NOGO    SETB  1                                                        16000020
.TEST    AIF   ('&PATH' EQ '').GLOB                                     17000020
         AIF   ('&PATH(1)' EQ '' OR '&PATH(2)' EQ '').ERR               17800020
         AIF   ('&PATH(2)' EQ '0' OR '&PATH(2)' EQ 'X''0''' OR '&PATH(2*18600020
               )' EQ 'X''00''' OR '&PATH(2)'(1,2) EQ 'XL').ERR          19400020
         IEDQMASK &PATH(2),1                                            20200020
         AIF   (NOT &IEDQZA(24)).GLOB                                   21000020
.ERR     MNOTE 12,'***  IHB300  PATH OPERAND INVALID AS SPECIFIED'      22000020
&NOGO    SETB  1                                                        23000020
.GLOB    AIF   (&NOGO).MEND                                             24000020
         AIF   (NOT &IEDQZA(20) OR '&IEDQZJ' EQ '').A                   25000020
&IEDQZJ  DS    0H                                                       27000020
.A       AIF   ('&NAME' EQ '').NON                                      28000020
&NAME    DS    0H                                                       29000020
.NON     ANOP                                                           30000020
&IEDQZA(1) SETB 0                                                       31000020
&IEDQZA(2) SETB 1                                                       32000020
&IEDQZA(3) SETB 0                                                       33000020
&IEDQZA(4) SETB 1                                                       34000020
&IEDQZA(5) SETB 0                                                       35000020
&IEDQZC  L     1,IEDADBUF .             GET BUFFER ADDR                 36000020
&IEDQZC  SETC  'IEDS'.'&SYSNDX'                                         37000020
         TM    20(1),1 .                HEADER BUFFER                   38000020
         BO    &IEDQZC .                NO - GO TO NEXT DELIMITER       39000020
         AIF   ('&PATH' EQ '').MEND                                     40000020
         LOCOPT &PATH(1)                                                41000020
         AIF   (&IEDQZA(61)).MEND                                       42000020
         LTR   15,15 .                  OPTION FIELD FOUND              43000020
         BZ    &IEDQZC .                NO - GO TO NEXT DELIM           44000020
         TM    0(15),&PATH(2) .         PATH SWITCHES ON                45000020
         BZ    &IEDQZC .                NO - GO TO NEXT DELIM           46000020
.MEND    SPACE 2                                                        47000020
&IEDQZA(20) SETB 0                                                      49000020
         MEND                                                           50000020
