         MACRO                                                          01000020
&NAME    OUTMSG &PATH=                                                  02000020
         GBLA  &IEDQZE(64)                                              03000020
         GBLB  &IEDQZA(64)                                              04000020
         GBLC  &IEDQZC,&IEDQZJ                                          05000020
         LCLB  &NOGO                                                    06000020
.*             VERSION DATED OCTOBER 22, 1976                           07000010
.*C435000-440000                                                 S22026 07300022
.*A515000,525000,541000-545000                                   S22026 07600022
.*C542000,546000,549000                                         SA59170 07800010
         SPACE                                                          08000020
&IEDQZA(6) SETB 1                                                       09000020
         AIF   (&IEDQZA(46)).OK                                         10000020
         MNOTE 12,'***  IHB070  SEQUENCE ERROR - MUST FOLLOW STARTMH MA*11000020
               CRO'                                                     12000020
&NOGO    SETB  1                                                        13000020
.OK      AIF   ('&PATH' EQ '').CHK                                      14000020
         AIF   ('&PATH(1)' EQ '' OR '&PATH(2)' EQ '').ERR               14700020
         AIF   ('&PATH(2)' EQ '0' OR '&PATH(2)' EQ 'X''00''' OR '&PATH(*15400020
               2)' EQ 'X''0''' OR '&PATH(2)'(1,2) EQ 'XL').ERR          16100020
         IEDQMASK &PATH(2),1                                            17000020
         AIF   (NOT &IEDQZA(24)).CHK                                    18000020
.ERR     MNOTE 12,'***  IHB300  PATH OPERAND INVALID AS SPECIFIED'      19000020
&NOGO    SETB  1                                                        20000020
.CHK     AIF   (&NOGO).MEND                                             21000020
         AIF   (NOT &IEDQZA(28)).BITS                                   22000020
         DC    X'0100'                                                  23000020
.BITS    AIF   ('&NAME' EQ '').ZJ                                       24000020
&NAME    DS    0H                                                       25000020
.ZJ      AIF   (NOT &IEDQZA(20)).NON                                    26000020
         AIF   ('&IEDQZJ' EQ '').NON                                    27000020
&IEDQZJ  DS    0H                                                       28000020
.NON     ANOP                                                           29000020
&IEDQZC  DS    0H                                                       30000020
&IEDQZC  SETC  'IEDS'.'&SYSNDX'                                         31000020
&IEDQZA(1) SETB 0                                                       32000020
&IEDQZA(2) SETB 1                                                       33000020
&IEDQZA(3) SETB 0                                                       34000020
&IEDQZA(4) SETB 0                                                       35000020
         AIF   ('&PATH' EQ '').OUT                                      37000010
&IEDQZA(5) SETB 0                    RESET FOR LOCOPT          @YM06984 37500010
         LOCOPT &PATH(1)                                                38000020
         AIF   (&IEDQZA(61)).MEND                                       39000020
         LTR   15,15 .                  OPTION FIELD FOUND              40000020
         BZ    &IEDQZC .                NO - GO TO NEXT DELIM           41000020
         TM    0(15),&PATH(2) .         PATH SWITCHES ON                42000020
         BZ    &IEDQZC .                NO - GO TO NEXT DELIM           43000020
.OUT     ANOP .                                                @YM06984 43300010
&IEDQZA(5) SETB 1                                              @YM06984 43600010
         AIF   ((&IEDQZA(26) AND (&IEDQZA(25))) OR (&IEDQZA(25) AND (NOX44000010
               T &IEDQZA(26)))).NOP                            @YM06984 44500010
         CNOP  2,4 .                                             S22025 45000022
         AGO   .PATH                                                    46000020
.NOP     CNOP  0,4 .                                             S22025 47000022
.PATH    AIF   ('&PATH' NE '').SET                                      48000020
&IEDQZA(11) SETB 1                                                      49000020
.SET     L     15,IEDUI .               INMSG/OUTMSG ROUTINE            50000020
         BALR  1,15                                                     51000020
         AIF   (&IEDQZA(25)).GH .                                S22026 51500022
         AIF   (&IEDQZA(26)).MSF                                        52000020
.A4      ANOP .                                                  S22026 52500022
         DC    AL1(&IEDQZE(33)),AL1(4),AL2(0) .                  S22025 53000022
         AGO   .MEND                                                    54000020
.GH      ANOP .                                                  S22026 54100022
         DC    AL1(&IEDQZE(51)+1),AL1(2)                        SA59170 54200010
         AIF   (NOT &IEDQZA(26)).A4 .                            S22026 54300022
         ORG   *-1 .                                             S22026 54400022
         AIF   (&IEDQZA(26) AND &IEDQZA(23)).LEN .               S22026 54500022
         DC    AL1(6)                                           SA59170 54600010
         AGO   .MSF .                                            S22026 54700022
.LEN     ANOP .                                                  S22026 54800022
         DC    AL1(10)                                          SA59170 54900010
.MSF     ANOP                                                    S22025 55000022
         AIF   (&IEDQZA(23)).VARBLK    VARIABLE BLOCK            S22025 55050022
         DC   AL1(&IEDQZE(47)),AL1(4),AL1(&IEDQZE(38)),AL1(&IEDQZE(16)) 55100022
         AGO   .FINISH                                           S22025 55150022
.VARBLK  ANOP                                                           55200022
         DC   AL1(&IEDQZE(47)),AL1(8),AL1(&IEDQZE(38)),AL1(&IEDQZE(16)) 55250022
         DC    V(IEDQAX)                                         S22025 55300022
.FINISH  ANOP                                                    S22025 55350022
         DC    AL1(&IEDQZE(33)),AL1(4),AL2(0) .                  S22025 55400022
.MEND    SPACE 2                                                        58000020
&IEDQZJ  SETC  ''                                                       59000020
&IEDQZA(6) SETB 0                                                       60000020
&IEDQZA(20) SETB 0                                                      61000020
&IEDQZA(28) SETB 1                                                      63000020
         MEND                                                           64000020
