         MACRO                                                          00050000
&NAME    PARAMNUM   &PLN=,&PARMLST=                                     00100000
         GBLA  &IECPARN,&IECNDGP(100)                                   00150000
.*             IECPARN  PARAMETER LIST NUMBER OF LAST MACRO             00200000
.*             IECNDGP(1)   TOTAL BYTES COUNTER                         00250000
         GBLB  &IECSW(9),&IECSEQ(10),&IECSQ(7),&IECGDSW                 00300000
.*             IECSQ(3)  SEQUENCE INDICATOR FOR PARAMNUM MACRO          00350000
.*             IECGDSW   INDICATES GDU=YES CODED IN CONFIGUR MACRO      00400000
         LCLA  &A                                                       00450000
         LCLB  &NOCODE                                                  00500000
         LCLC  &CHAR                                                    00550000
         ACTR  1000                                                     00600000
               AIF  (&IECSEQ(1) AND &IECSEQ(2) AND &IECSQ(1) AND &IECSQX00650000
               (2) AND NOT &IECSEQ(4) AND NOT &IECSEQ(5)).SEQ1          00700000
         AGO   .SEQ2                                                    00750000
.SEQ1    ANOP                                                           00800000
         AIF   (NOT &IECSEQ(6) AND NOT &IECSEQ(10) AND NOT &IECSQ(4)   X00850000
               AND NOT &IECSQ(5) AND NOT &IECSQ(6)).SEQOK               00900000
.SEQ2    ANOP                                                           00950000
&NOCODE  SETB  1                                                        01000000
         MNOTE 12,'MACRO SEQUENCE ERROR'                                01050000
.SEQOK   ANOP                                                           01100000
         AIF   (&IECSQ(7)).SEQ2                                         01150000
         AIF   (&IECGDSW).SWOK                                          01200000
&NOCODE  SETB  1                                                        01250000
         MNOTE 12,'GDU=YES MUST BE CODED IN CONFIGUR MACRO'             01300000
.SWOK    ANOP                                                           01350000
         AIF   (T'&PLN NE 'O').PLN1                                     01400000
&NOCODE  SETB  1                                                        01450000
         MNOTE 12,'PLN OPERAND CAN NOT BE OMITTED'                      01500000
         AGO   .PARLST1                                                 01550000
.PLN1    ANOP                                                           01600000
         AIF   (T'&PLN EQ 'N').PLN2                                     01650000
&NOCODE  SETB  1                                                        01700000
         MNOTE 12,'PLN OPERAND HAS INVALID TYPE ATTRIBUTE'              01750000
         AGO   .PARLST1                                                 01800000
.PLN2    ANOP                                                           01850000
         AIF   (&PLN GE 1 AND &PLN LE 127).PLN3                         01900000
&NOCODE  SETB  1                                                        01950000
         MNOTE 12,'PLN OPERAND NOT IN VALID RANGE OF 1 TO 127'          02000000
         AGO   .PARLST1                                                 02050000
.PLN3    ANOP                                                           02100000
         AIF   (&IECSQ(3)).PLN4                                         02150000
         AIF   (&PLN GT &IECPARN).PARLST1                               02200000
.PLN4    ANOP                                                           02250000
         AIF   (&PLN GT &IECPARN).PARLST1                               02300000
&NOCODE  SETB  1                                                        02350000
         MNOTE 12,'PLN OPERAND MUST BE GREATER THAN PLN OPERAND OF     X02400000
               PREVIOUS MACRO'                                          02450000
.PARLST1 ANOP                                                           02500000
         AIF   (&PLN EQ 0).PARLST3                                      02550000
&A       SETA  &IECPARN+1                                               02600000
         AIF   (&PLN EQ &A).PARLST3                                     02650000
&NOCODE  SETB  1                                                        02700000
         MNOTE 12,'PLN OPERAND MUST BE ONE GREATER THAN PLN OF         X02750000
               PREVIOUS PARAMNUM MACRO'                                 02800000
.PARLST3 ANOP                                                           02850000
         AIF   (T'&PARMLST NE 'O').PARLST2                              02900000
&NOCODE  SETB  1                                                        02950000
         MNOTE 12,'PARMLST OPERAND CAN NOT BE OMITTED'                  03000000
         AGO   .GEN                                                     03050000
.PARLST2 ANOP                                                           03100000
         AIF   (T'&PARMLST EQ 'M').GEN                                  03150000
&NOCODE  SETB  1                                                        03200000
         MNOTE 12,'PARMLST OPERAND HAS INVALID TYPE ATTRIBUTE'          03250000
.GEN     ANOP                                                           03300000
         AIF   (&NOCODE).NOGEN                                          03350000
         AIF   (&IECSQ(3)).NONAME                                       03400000
IECPARLN EQU   *    GDU PARAMETER LIST NUMBER TABLE                     03450000
         DS    0H                                                       03500000
.NONAME  ANOP                                                           03550000
&A       SETA  &IECPARN+1                                               03600000
.LOOP    AIF   (&PLN EQ &A).GEN1                                        03650000
         DC    YL2(0)                                                   03700000
&IECNDGP(1) SETA &IECNDGP(1)+2                                          03750000
&A       SETA  &A+1                                                     03800000
         AGO   .LOOP                                                    03850000
.GEN1    ANOP                                                           03900000
&IECPARN SETA  &PLN                                                     03950000
&CHAR    SETC  '&PARMLST'                                               04000000
         DC    AL2(&CHAR-IEC15TAB)                                      04050000
&IECNDGP(1) SETA &IECNDGP(1)+2                                          04100000
&IECSQ(3) SETB 1                                                        04150000
         AGO   .MEND                                                    04200000
.NOGEN   ANOP                                                           04250000
         MNOTE 12,'TEXT GENERATION SUPPRESSED'                          04300000
.MEND    ANOP                                                           04350000
         MEND                                                           04400000
