         MACRO                                                          00050000
&NAME    PARMLIST &CKLNGTH=,&CKMONKY=,&CKMOD11=,&CKMOD10=,&CKRANGE=,   X00100000
               &RNGETST=,&CKOR=,&CKAND=,&CKNONUM=,&CKNUM=,&HIGUID=,    X00150000
               &LOWGUID=,&ORGUID=,&ANDGUID=,&TRANSL=,&IDENT=            00200000
         GBLA  &IECNDGP(100)                                            00250000
.*             IECNDGP(1)  TOTAL BYTES COUNTER                          00300000
         GBLB &IECSW(9),&IECSEQ(10),&IECSQ(7),&IECGDSW                  00350000
.*             IECSQ(4) SEQUENCE INDICATOR                              00400000
.*             IECGDSW  ON INDICATES GDU=YES CODED IN CONFIGUR MACRO    00450000
         LCLA  &A,&B,&C,&D,&E,&F                                        00500000
.*             &E   TOTAL NO OF CHECKS OTHER THAN CKLNGTH AND CKMONKY   00550000
.*             &F   CHECK FUNCTION FIELD                                00600000
         LCLA  &G                                                       00650000
         LCLB  &LEN(16),&LENE(16),&POS(16),&MODE(16),&ALE(16),&ME(16)   00700000
         LCLB  &HIE(16),&LOWE(16),&ORE(16),&ANDE(16),&NUME(16)          00750000
         LCLB  &NOCODE,&N                                               00800000
.*             &N   INDICATES LENGTH POSITIONS SHOULD BE CHECKED        00850000
         LCLC  &CHAR                                                    00900000
         ACTR  1000                                                     00950000
         AIF   (&IECSEQ(1) AND &IECSEQ(2) AND &IECSQ(1) AND &IECSQ(2)  X01000000
               AND &IECSQ(3) AND NOT &IECSQ(5) AND NOT &IECSQ(6)).SEQ1  01050000
.SEQ2    ANOP                                                           01100000
&NOCODE  SETB  1                                                        01150000
         MNOTE 12,'MACRO SEQUENCE ERROR'                                01200000
         AGO   .NAM                                                     01250000
.SEQ1    AIF   (&IECSEQ(4) OR &IECSEQ(5) OR &IECSEQ(10) OR &IECSEQ(6)).X01300000
               SEQ2                                                     01350000
.NAM     ANOP                                                           01400000
         AIF   ('&NAME' NE '').GDUYES                                   01450000
&NOCODE  SETB  1                                                        01500000
         MNOTE 12,'NAME FIELD REQUIRED'                                 01550000
.GDUYES  AIF   (&IECGDSW).LEN                                           01600000
&NOCODE  SETB  1                                                        01650000
         MNOTE 12,'PARMLIST MACRO NOT VALID UNLESS GDU=YES CODED IN    X01700000
               CONFIGUR MACRO'                                          01750000
.LEN     ANOP                                                           01800000
&E       SETA  0                                                        01850000
&F       SETA  0                                                        01900000
         AIF   (T'&CKLNGTH EQ 'O' AND N'&CKLNGTH EQ 0).MON              01950000
&F       SETA  &F+32768                                                 02000000
&A       SETA  N'&CKLNGTH                                               02050000
         AIF   (&A LT 1).MON                                            02100000
         AIF   (T'&CKLNGTH(1) NE 'O').LEN1                              02150000
&NOCODE  SETB  1                                                        02200000
         MNOTE 12,'CKLNGTH OPERAND HAS LENGTH SUBOPERAND OMITTED'       02250000
         AGO   .LEN3                                                    02300000
.LEN1    AIF   (T'&CKLNGTH(1) EQ 'N').LEN2                              02350000
&NOCODE  SETB  1                                                        02400000
         MNOTE 12,'LENGTH SUBOPERAND OF CKLNGTH OPERAND HAS INVALID    X02450000
               TYPE ATTRIBUTE'                                          02500000
         AGO   .LEN3                                                    02550000
.LEN2    ANOP                                                           02600000
&B       SETA  &CKLNGTH(1)                                              02650000
         AIF   (&B GE 1 AND &B LE 17).LEN3                              02700000
&NOCODE  SETB  1                                                        02750000
         MNOTE 12,'LENGTH SPECIFIED IN CKLNGTH OPERAND NOT IN VALID    X02800000
               RANGE OF 1 TO 17'                                        02850000
.LEN3    ANOP                                                           02900000
         AIF   (&A GE 1 AND &A LE 17).LEN4                              02950000
&NOCODE  SETB  1                                                        03000000
         MNOTE 12,'CKLNGTH OPERAND HAS INVALID NUMBER OF SUBOPERANDS'   03050000
         AGO   .MON                                                     03100000
.LEN4    ANOP                                                           03150000
&B       SETA  &B-1      FORGET POSITION 1 BECAUSE NO CHECKS USE IT     03200000
&N       SETB  1                                                        03250000
&C       SETA  1                                                        03300000
         AIF   (&B EQ 0).LEN6                                           03350000
         AIF   (&B GT 16).LEN6                                          03400000
.LEN5    ANOP                                                           03450000
         AIF   (&C GT &B).LEN6                                          03500000
&LEN(&C) SETB  1        SWITCHES INDICATING LENGTH POSITIONS USED       03550000
&C       SETA  &C+1                                                     03600000
         AGO   .LEN5                                                    03650000
.LEN6    ANOP                                                           03700000
&A       SETA  &A-1     NUMBER OF ERRGUIDANCE OPERANDS                  03750000
         AIF   (&A EQ 0).MON                                            03800000
&B       SETA  2                                                        03850000
&A       SETA  N'&CKLNGTH                                               03900000
.LEN7    ANOP                                                           03950000
         AIF   (T'&CKLNGTH(&B) EQ 'N').LEN8                             04000000
&NOCODE  SETB  1                                                        04050000
&CHAR    SETC  '&CKLNGTH(&B)'                                           04100000
         MNOTE 12,'CKLNGTH SUBOPERAND = &CHAR IS INVALID'               04150000
.LEN8    ANOP                                                           04200000
         AIF   (&CKLNGTH(&B) GE 1 AND &CKLNGTH(&B) LE 16).LEN9          04250000
&NOCODE  SETB  1                                                        04300000
&CHAR    SETC  '&CKLNGTH(&B)'                                           04350000
         MNOTE 12,'CKLNGTH SUBOPERAND = &CHAR NOT IN RANGE OF 1 TO 16'  04400000
         AGO   .LEN10                                                   04450000
.LEN9    ANOP                                                           04500000
&C       SETA  &CKLNGTH(&B)                                             04550000
&LENE(&C) SETB 1                                                        04600000
.LEN10   ANOP                                                           04650000
         AIF   (&B EQ &A).MON     IF LAST SUBOPERAND,BRANCH             04700000
&B       SETA  &B+1                                                     04750000
         AGO   .LEN7       CONTINUE CHECKING CKLNGTH OPERAND            04800000
.MON     ANOP                                                           04850000
         AIF   (T'&CKMONKY EQ 'O').MOD                                  04900000
         AIF   ('&CKMONKY' EQ 'NO').MON1                                04950000
         AIF   ('&CKMONKY' EQ 'YES').MON1                               05000000
&NOCODE  SETB  1                                                        05050000
         MNOTE 12,'CKMONKY OPERAND INVALID'                             05100000
         AGO   .MOD                                                     05150000
.MON1    ANOP                                                           05200000
         AIF   ('&CKMONKY' NE 'YES').MOD                                05250000
&F       SETA  &F+64                                                    05300000
.MOD     ANOP                                                           05350000
         AIF   (T'&CKMOD10 EQ 'O' AND N'&CKMOD10 EQ 0).M                05400000
&E       SETA  &E+1                                                     05450000
&F       SETA  &F+8192                                                  05500000
&A       SETA  N'&CKMOD10                                               05550000
         AIF   (&A LT 1).M                                              05600000
         AIF   (T'&CKMOD10(1) NE 'O').MOD1                              05650000
&NOCODE  SETB  1                                                        05700000
         MNOTE 12,'CKMOD10 OPERAND HAS LENGTH SUBOPERAND OMITTED'       05750000
         AGO   .MOD3                                                    05800000
.MOD1    AIF   (T'&CKMOD10(1) EQ 'N').MOD2                              05850000
&NOCODE  SETB  1                                                        05900000
         MNOTE 12,'LENGTH  SUBOPERAND OF CKMOD10 OPERAND HAS INVALID   X05950000
               TYPE ATTRIBUTE'                                          06000000
         AGO   .MOD3                                                    06050000
.MOD2    ANOP                                                           06100000
&B       SETA  &CKMOD10(1)                                              06150000
         AIF   (&B GE 1 AND &B LE 15).MOD3                              06200000
&NOCODE  SETB  1                                                        06250000
         MNOTE 12,'LENGTH SPECIFIED IN CKMOD10 OPERAND NOT IN VALID    X06300000
               RANGE OF 1 TO 15'                                        06350000
.MOD3    ANOP                                                           06400000
         AIF   (T'&CKMOD10(2) NE 'O').MOD4                              06450000
&NOCODE  SETB  1                                                        06500000
         MNOTE 12,'CKMOD10 OPERAND HAS POSITION SUBOPERAND OMITTED'     06550000
         AGO   .MOD10                                                   06600000
.MOD4    ANOP                                                           06650000
         AIF   (T'&CKMOD10(2) EQ 'N').MOD5                              06700000
&NOCODE  SETB  1                                                        06750000
         MNOTE 12,'POSITION SUBOPERAND OF CKMOD10 OPERAND HAS INVALID  X06800000
               TYPE ATTRIBUTE'                                          06850000
         AGO   .MOD10                                                   06900000
.MOD5    ANOP                                                           06950000
&B       SETA  &CKMOD10(2)                                              07000000
         AIF   (&B GE 2 AND &B LE 16).MOD6                              07050000
&NOCODE  SETB  1                                                        07100000
         MNOTE 12,'POSITION SPECIFIED IN CKMOD10 OPERAND NOT IN VALID  X07150000
               RANGE OF 2 TO 16'                                        07200000
         AGO   .MOD10                                                   07250000
.MOD6    ANOP                                                           07300000
&B       SETA  &B-1                                                     07350000
&C      SETA  &B+&CKMOD10(1)-1                                          07400000
         AIF   (&C LE 16).MOD7                                          07450000
&NOCODE  SETB  1                                                        07500000
         MNOTE 12,'CKMOD10 LENGTH AND POSITION OPERANDS INVALID BECAUSEX07550000
                SOME POSITIONS ARE BEYOND END OF DATA ENTRY'            07600000
         AGO   .MOD10                                                   07650000
.MOD7    ANOP                                                           07700000
         AIF   (&NOCODE).MOD10                                          07750000
         AIF   (NOT &POS(&B)).MOD8   IS POSITION ALREADY USED           07800000
&NOCODE  SETB  1                                                        07850000
&D       SETA  &B+1                                                     07900000
&CHAR    SETC  '&D'                                                     07950000
         MNOTE 12,'POSITION = &CHAR CANNOT BE USED BY TWO CHECKS'       08000000
.MOD8    ANOP                                                           08050000
&POS(&B) SETB  1             SET POSITION INDICATOR                     08100000
         AIF   (NOT &N).MOD9                                            08150000
         AIF   (&POS(&B) AND &LEN(&C)).MOD9                             08200000
&NOCODE  SETB  1                                                        08250000
&D       SETA  &B+1                                                     08300000
&CHAR    SETC  '&D'                                                     08350000
         MNOTE 12,'LENGTH IN CKLNGTH OPERAND NOT LONG ENOUGH TO INCLUDEX08400000
               POSITION = &CHAR IN CKMOD10 OPERAND'                     08450000
.MOD9    ANOP                                                           08500000
         AIF   (&B EQ &C).MOD10                                         08550000
&B       SETA  &B+1                                                     08600000
         AGO   .MOD7                                                    08650000
.MOD10   ANOP                                                           08700000
&A       SETA  N'&CKMOD10-2                                             08750000
         AIF   (&A LE 0).M                                              08800000
&A       SETA  N'&CKMOD10                                               08850000
&B       SETA  3                                                        08900000
.MOD11   ANOP                                                           08950000
         AIF   (T'&CKMOD10(&B) EQ 'N').MOD12                            09000000
&NOCODE  SETB  1                                                        09050000
&CHAR    SETC  '&CKMOD10(&B)'                                           09100000
         MNOTE 12,'CKMOD10 SUBOPERAND = &CHAR IS INVALID'               09150000
         AGO   .MOD14                                                   09200000
.MOD12   ANOP                                                           09250000
         AIF   (&CKMOD10(&B) GE 1 AND &CKMOD10(&B) LE 16).MOD13         09300000
&NOCODE  SETB  1                                                        09350000
         MNOTE 12,'CKMOD10 SUBOPERAND NOT IN RANGE OF 1 TO 16'          09400000
         AGO   .MOD14                                                   09450000
.MOD13   ANOP                                                           09500000
&C       SETA  &CKMOD10(&B)                                             09550000
&ME(&C)  SETB  1                                                        09600000
.MOD14   ANOP                                                           09650000
         AIF   (&B EQ &A).M   IF LAST SUBOPERAND,BRANCH                 09700000
&B       SETA  &B+1                                                     09750000
         AGO   .MOD11                                                   09800000
.M       ANOP                                                           09850000
         AIF   (T'&CKMOD11 EQ 'O' AND N'&CKMOD11 EQ 0).ALP              09900000
&E       SETA  &E+1                                                     09950000
&F       SETA  &F+16384                                                 10000000
&A       SETA  N'&CKMOD11                                               10050000
         AIF   (&A LT 1).ALP                                            10100000
         AIF   (T'&CKMOD11(1) NE 'O').M1                                10150000
&NOCODE  SETB  1                                                        10200000
         MNOTE 12,'CKMOD11 OPERAND HAS LENGTH SUBOPERAND OMITTED'       10250000
         AGO   .M3                                                      10300000
.M1      AIF   (T'&CKMOD11(1) EQ 'N').M2                                10350000
&NOCODE  SETB  1                                                        10400000
         MNOTE 12,'LENGTH SUBOPERAND OF CKMOD11 OPERAND HAS INVALID    X10450000
               TYPE ATTRIBUTE'                                          10500000
         AGO   .M3                                                      10550000
.M2      ANOP                                                           10600000
&B       SETA  &CKMOD11(1)                                              10650000
         AIF   (&B GE 1 AND &B LE 15).M3                                10700000
&NOCODE  SETB  1                                                        10750000
         MNOTE 12,'LENGTH SPECIFIED IN CKMOD11 OPERAND NOT IN VALID    X10800000
               RANGE OF 1 TO 15'                                        10850000
.M3      ANOP                                                           10900000
         AIF   (T'&CKMOD11(2) NE 'O').M4                                10950000
&NOCODE  SETB  1                                                        11000000
         MNOTE 12,'CKMOD11 OPERAND HAS POSITION SUBOPERAND OMITTED'     11050000
         AGO   .M10                                                     11100000
.M4      ANOP                                                           11150000
         AIF   (T'&CKMOD11(2) EQ 'N').M5                                11200000
&NOCODE  SETB  1                                                        11250000
         MNOTE 12,'POSITION SUBOPERAND OF CKMOD11 OPERAND HAS INVALID  X11300000
               TYPE ATTRIBUTE'                                          11350000
         AGO   .M10                                                     11400000
.M5      ANOP                                                           11450000
&B       SETA  &CKMOD11(2)                                              11500000
         AIF   (&B GE 2 AND &B LE 16).M6                                11550000
&NOCODE  SETB  1                                                        11600000
         MNOTE 12,'POSITION SPECIFIED IN CKMOD11 OPERAND NOT IN VALID  X11650000
               RANGE OF 2 TO 16'                                        11700000
         AGO   .M10                                                     11750000
.M6      ANOP                                                           11800000
&B       SETA  &B-1                                                     11850000
&C       SETA  &B+&CKMOD11(1)-1                                         11900000
         AIF   (&C LE 16).M7                                            11950000
&NOCODE  SETB  1                                                        12000000
         MNOTE 12,'CKMOD11 LENGTH AND POSITION OPERANDS INVALID  BECAUSX12050000
               E SOME POSITIONS ARE BEYOND END OF DATA ENTRY'           12100000
         AGO   .M10                                                     12150000
.M7      ANOP                                                           12200000
         AIF   (&NOCODE).M10                                            12250000
         AIF   (NOT &POS(&B)).M8   IS POSITION ALREADY USED             12300000
&NOCODE  SETB  1                                                        12350000
&D       SETA  &B+1                                                     12400000
&CHAR    SETC  '&D'                                                     12450000
         MNOTE 12,'POSITION = &CHAR CANNOT BE USED BY TWO CHECKS'       12500000
.M8      ANOP                                                           12550000
&POS(&B) SETB  1                                                        12600000
         AIF   (NOT &N).M9                                              12650000
         AIF   (&POS(&B) AND &LEN(&B)).M9                               12700000
&NOCODE  SETB  1                                                        12750000
&D       SETA  &B+1                                                     12800000
&CHAR    SETC  '&D'                                                     12850000
         MNOTE 12,'LENGTH IN CKLNGTH OPERAND NOT LONG ENOUGH TO  INCLUDX12900000
               E POSITION = &CHAR IN CKMOD11 OPERAND'                   12950000
.M9      ANOP                                                           13000000
         AIF   (&B EQ &C).M10                                           13050000
&B       SETA  &B+1                                                     13100000
         AGO   .M7                                                      13150000
.M10     ANOP                                                           13200000
&A       SETA  N'&CKMOD11-2                                             13250000
         AIF   (&A LE 0).ALP                                            13300000
&B       SETA  3                                                        13350000
&A       SETA  N'&CKMOD11                                               13400000
.M11     ANOP                                                           13450000
         AIF   (T'&CKMOD11(&B) EQ 'N').M12                              13500000
&NOCODE  SETB  1                                                        13550000
&CHAR    SETC  '&CKMOD11(&B)'                                           13600000
         MNOTE 12,'CKMOD11 SUBOPERAND = &CHAR IS INVALID'               13650000
         AGO   .M14                                                     13700000
.M12     ANOP                                                           13750000
         AIF   (&CKMOD11(&B) GE 1 AND &CKMOD11(&B) LE 16).M13           13800000
&NOCODE  SETB  1                                                        13850000
         MNOTE 12,'CKMOD11 SUBOPERAND NOT IN RANGE OF 1 TO 16'          13900000
         AGO   .M14                                                     13950000
.M13     ANOP                                                           14000000
&C       SETA  &CKMOD11(&B)                                             14050000
&MODE(&C) SETB 1                                                        14100000
.M14     ANOP                                                           14150000
         AIF   (&B EQ &A).ALP  IF LAST SUBOPERAND,BRANCH                14200000
&B       SETA  &B+1                                                     14250000
         AGO   .M11                                                     14300000
.ALP     ANOP                                                           14350000
         AIF   (T'&CKNONUM EQ 'O' AND N'&CKNONUM EQ 0).NUM              14400000
&E       SETA  &E+1                                                     14450000
&F       SETA  &F+2048                                                  14500000
&A       SETA  N'&CKNONUM                                               14550000
         AIF   (&A LT 1).NUM                                            14600000
         AIF   (T'&CKNONUM(1) NE 'O').ALP1                              14650000
&NOCODE  SETB  1                                                        14700000
         MNOTE 12,'CKNONUM OPERAND HAS POSITION1 SUBOPERAND OMITTED'    14750000
         AGO   .ALP3                                                    14800000
.ALP1    AIF   (T'&CKNONUM(1) EQ 'N').ALP2                              14850000
&NOCODE  SETB  1                                                        14900000
         MNOTE 12,'POSITION1 SUBOPERAND OF CKNONUM OPERAND HAS INVALID X14950000
               TYPE ATTRIBUTE'                                          15000000
         AGO   .ALP3                                                    15050000
.ALP2    ANOP                                                           15100000
&B       SETA  &CKNONUM(1)                                              15150000
         AIF   (&B GE 2 AND &B LE 17).ALP3                              15200000
&NOCODE  SETB  1                                                        15250000
         MNOTE 12,'POSITION1 SPECIFIED IN CKNONUM OPERAND NOT IN VALID X15300000
               RANGE OF 2 TO 17'                                        15350000
.ALP3    ANOP                                                           15400000
         AIF   (T'&CKNONUM(2) NE 'O').ALP4                              15450000
&NOCODE  SETB  1                                                        15500000
         MNOTE 12,'CKNONUM OPERAND HAS POSITION2 SUBOPERAND OMITTED'    15550000
         AGO   .ALP11                                                   15600000
.ALP4    ANOP                                                           15650000
         AIF   (T'&CKNONUM(2) EQ 'N').ALP5                              15700000
&NOCODE  SETB  1                                                        15750000
         MNOTE 12,'POSITION2 SUBOPERAND OF CKNONUM OPERAND HAS INVALID X15800000
               TYPE ATTRIBUTE'                                          15850000
         AGO   .ALP11                                                   15900000
.ALP5    ANOP                                                           15950000
&B       SETA  &CKNONUM(2)                                              16000000
         AIF   (&B GE 2 AND &B LE 17).ALP6                              16050000
&NOCODE  SETB  1                                                        16100000
         MNOTE 12,'POSITION2 SPECIFIED IN CKNONUM OPERAND NOT IN VALID X16150000
               RANGE OF 2 TO 17'                                        16200000
         AGO   .ALP11                                                   16250000
.ALP6    AIF   (&CKNONUM(2) GE &CKNONUM(1)).ALP7                        16300000
&NOCODE  SETB  1                                                        16350000
         MNOTE 12,'POSITION2 MUST NOT BE LESS THAN POSITION1 IN        X16400000
               CKNONUM OPERAND'                                         16450000
         AGO   .ALP11                                                   16500000
.ALP7    ANOP                                                           16550000
         AIF   (&NOCODE).ALP11                                          16600000
&B       SETA  &CKNONUM(1)-1                                            16650000
&C       SETA  &CKNONUM(2)-1                                            16700000
.ALP8    AIF   (NOT &POS(&B)).ALP9   IS POSITION ALREADY USED           16750000
&NOCODE  SETB  1                                                        16800000
&D       SETA  &B+1                                                     16850000
&CHAR    SETC  '&D'                                                     16900000
         MNOTE 12,'POSITION = &CHAR CANNOT BE USED BY TWO CHECKS'       16950000
.ALP9    ANOP                                                           17000000
&POS(&B) SETB  1                                                        17050000
         AIF   (NOT &N).ALP10                                           17100000
         AIF   (&POS(&B) AND &LEN(&C)).ALP10                            17150000
&NOCODE  SETB  1                                                        17200000
&D       SETA  &B+1                                                     17250000
&CHAR    SETC  '&D'                                                     17300000
         MNOTE 12,'LENGTH IN CKLNGTH OPERAND NOT LONG ENOUGH TO  INCLUDX17350000
               E POSITION = &CHAR IN CKNONUM OPERAND'                   17400000
.ALP10   ANOP                                                           17450000
         AIF   (&B EQ &C).ALP11                                         17500000
&B       SETA  &B+1                                                     17550000
         AGO   .ALP8                                                    17600000
.ALP11   ANOP                                                           17650000
&A       SETA  N'&CKNONUM-2                                             17700000
         AIF   (&A LE 0).NUM                                            17750000
&B       SETA  3                                                        17800000
&A       SETA  N'&CKNONUM                                               17850000
.ALP12   ANOP                                                           17900000
         AIF   (T'&CKNONUM(&B) EQ 'N').ALP13                            17950000
&NOCODE  SETB  1                                                        18000000
&CHAR    SETC  '&CKNONUM(&B)'                                           18050000
         MNOTE 12,'CKNONUM SUBOPERAND = &CHAR IS INVALID'               18100000
         AGO   .ALP15                                                   18150000
.ALP13   ANOP                                                           18200000
         AIF   (&CKNONUM(&B) GE 1 AND &CKNONUM(&B) LE 16).ALP14         18250000