         MACRO                                                          01000020
&NAME    PATH  &SW,&OP,&CHARS,&BLANK=YES                                02000020
         GBLA  &IEDQZD                                                  03000020
         GBLB  &IEDQZA(64)                                              04000020
         GBLC  &IEDQZB,&IEDQZC                                          05000020
         LCLA  &A                                                       06000020
         LCLB  &NOGO                                                    07000020
         LCLC  &PARM,&C                                                 08000020
.*             VERSION DATED OCTOBER 16, 1970                           09000020
.*C110000                                                      @OZ50351 09050082
         SPACE                                                          10000020
&PARM    SETC  'IEDW'.'&SYSNDX'        SET UP LABEL NAME       @OZ50351 11000082
         AIF   ((&IEDQZA(1) OR &IEDQZA(2)) AND NOT &IEDQZA(5)).CHECK    12000020
         MNOTE 12,'***  IHB070  SEQUENCE ERROR-MUST FOLLOW INHDR, INBUF*13000020
               , OUTHDR OR OUTBUF MACRO'                                14000020
&NOGO    SETB  1                                                        15000020
.CHECK   AIF   ('&SW' EQ '').SWERR                                      16000020
         IEDQMASK &SW,1                                                 17000020
         AIF   (NOT &IEDQZA(24)).CHARS                                  18000020
.SWERR   MNOTE 12,'***  IHB300  SWITCH OPERAND INVALID AS SPECIFIED'    19000020
&NOGO    SETB  1                                                        20000020
.CHARS   AIF   ('&CHARS' EQ '').ORG                                     21000020
         AIF   (NOT &IEDQZA(9)).TSO001                              TSO 21100020
         MNOTE 12,'***  IHB314  CHARACTER OPERAND RESTRICTED WITH TSO M*21200020
               H'                                                       21300020
         AGO   .MEND                                                TSO 21800020
.TSO001  IEDQCHAR 8,&CHARS                                              22300020
         AIF   (&IEDQZA(24)).ERR                                        23000020
         AIF   (&IEDQZD LE 8).ORG                                       24000020
.ERR     MNOTE 12,'***  IHB300  CHARACTER OPERAND INVALID AS SPECIFIED' 25000020
&NOGO    SETB  1                                                        26000020
.ORG     AIF   (&NOGO).MEND                                             27000020
         AIF   ('&NAME' EQ '').NON                                      28000020
&NAME    DS    0H                                                       29000020
.NON     AIF   ('&CHARS' EQ '').DOIT                                    30000020
         IEDQSCAN &IEDQZD,&CHARS,&BLANK                                 31000020
         AIF   (&IEDQZA(24)).MEND                                       32000020
         LTR   15,15                                                    33000020
         BNP   &PARM                                                    36000020
         L     1,IEDADBUF .             GET BUFFER ADDRESS              39000020
         STH   15,24(,1) .              PUT SCAN IN BUFFER              40000020
.DOIT    LOCOPT &OP                                                     41000020
         AIF   (&IEDQZA(61)).MEND                                       42000020
         LTR   15,15 .                  OPTION FIELD FOUND              43000020
         BZ    *+8 .                    NO - DO NOT SET SWITCH          44000020
         AIF   ('&SW'(K'&SW,1) EQ '''').IC                              45000020
&C       SETC  '&SW'                                                    46000020
&A       SETA  &C                                                       47000020
         MVI   0(15),&A .               SET SWITCH                      48000020
         AGO   .MEND                                                    49000020
.IC      MVI   0(15),&SW .              SET SWITCH                      50000020
.MEND    SPACE 2                                                        51000020
&PARM    EQU   *                                                        53000020
         MEND                                                           54000020
