         MACRO                                                          01000020
&NAME    PCB   &MH=,&BUFSIZE=,&BUFIN=2,&BUFOUT=2,&RESERVE=(0,0),       C01500022
               &DATE=NO,&SFLAG=YES, .                          @YM08522C02000000
               &TIMEDLY=0,&PUTCNT=0 .                          @OX11307 02500000
         GBLC  &IEDQE13                                                 03000020
         LCLA  &TDELAY                                         @OX11307 03100000
         LCLA  &PCOUNT                                         @OX11307 03200000
.*A632000-638000,645000,025000                                   S22025 03300022
.*CHANGE-ACTIVITY = AS FOLLOWS:                                 SA21903 03600022
.*************************** MICROFICHE FLAGS *************** SUPT CODE 03700022
.*D433000-436000                                                 X01004 03750004
.*C020000,780000                                                SA59162 03800022
.*C020000                                                      @OX11307 03830000
.*A030000,395000,800000                                        @OX11307 03860000
.*D790000,800000                                               @OZ29168 03860182
.*             11/14/72      MODIFICATION DATE                  SA59162 03900022
         AIF   ('&MH' NE '' AND '&BUFSIZE' NE '').OK                    04000020
         MNOTE 12,'*** IHB004 REQUIRED OPERAND(S) NOT SPECIFIED'        05000020
         MEXIT                                                          06000020
.OK      ANOP                                                           07000020
         AIF   ('&NAME' NE '').OK1                                      08000020
         MNOTE 12,'*** IHB076 MACRO NAME FIELD BLANK-NAME REQ''D'       09000020
         MEXIT                                                          10000020
.OK1     ANOP                                                           11000020
         AIF   (K'&MH LT 9).OK2                                         12000020
.MHERR   ANOP                                                           13000020
         MNOTE 12,'*** IHB002 INVALID MH OPERAND SPECIFIED'             14000020
         MEXIT                                                          15000020
.OK2     ANOP                                                           16000020
         AIF   (('&MH'(1,1) GE 'A' AND '&MH'(1,1) LE 'Z') OR           X17000020
               '&MH'(1,1) EQ '$' OR '&MH'(1,1) EQ '@' OR               X18000020
               '&MH'(1,1) EQ '#').OK2A                                  19000020
         AGO   .MHERR                                                   20000020
.OK2A    ANOP                                                           21000020
         AIF   ('&BUFIN' GT '1' AND '&BUFIN' LT '16').OK5               22000020
         MNOTE 12,'*** IHB002 INVALID BUFIN OPERAND SPECIFIED-&BUFIN'   23000020
         MEXIT                                                          24000020
.OK5     ANOP                                                           25000020
         AIF   ('&BUFOUT' GT '1' AND '&BUFOUT' LT '16').OK6             26000020
         MNOTE 12,'*** IHB002 INVALID BUFOUT OPERAND SPECIFIED-&BUFOUT' 27000020
         MEXIT                                                          28000020
.OK6     ANOP                                                           29000020
         AIF   ('&BUFSIZE' GT '35' AND '&BUFSIZE' LT '65536').OK7       30000020
         MNOTE 12,'*** IHB002 INVALID BUFSIZE OPERAND SPECIFIED-       X31000020
               &BUFSIZE'                                                32000020
         MEXIT                                                          33000020
.OK7     ANOP                                                           34000020
         AIF   ('&RESERVE(1)' LE '255' AND '&RESERVE(2)' LE '255').OK8  35000020
.OK8A    ANOP                                                           36000020
         MNOTE 12,'*** IHB002 INVALID RESERVE OPERAND SPECIFIED'        37000020
         MEXIT                                                          38000020
.OK8     ANOP                                                           39000020
         AIF   ('&DATE' EQ 'NO').OK9                             S22025 39100022
         AIF   ('&DATE' EQ 'YES').OK9                            S22025 39200022
         MNOTE 12,'*** IHB002 INVALID DATE OPERAND SPECIFIED'           39300022
         MEXIT                                                   S22025 39400022
.OK9     ANOP .                                                  S22025 39500022
         AIF ('&TIMEDLY' GE '0' AND '&TIMEDLY' LE '3600').OKA  @OX11307 39520000
         MNOTE 0,'*** IHB086 TIMEDLY INVALID KEY20R, 000 ASSUMED'       39540000
&TDELAY  SETA  0                                               @OX11307 39560000
&PCOUNT  SETA  0                                               @OX11307 39580000
         AGO   .OKC                                            @OX11307 39600000
.OKA     ANOP                                                  @OX11307 39620000
         AIF   ('&PUTCNT' GE '0' AND '&PUTCNT' LE '1000').OKB  @OX11307 39640000
         MNOTE 0,'*** IHB086 PUTCNT INVALID KEYWORD, 000 ASSUMED'       39660000
&TDELAY  SETA  0                                               @OX11307 39680000
&PCOUNT  SETA  0                                               @OX11307 39700000
         AGO   .OKC                                            @OX11307 39720000
.OKB     ANOP                                                  @OX11307 39740000
         AIF   (('&TIMEDLY' EQ '0' AND '&PUTCNT' NE '0') OR            X39760000
               ('&TIMEDLY' NE '0' AND '&PUTCNT' EQ '0')).NOTOK @OX11307 39780000
&TDELAY  SETA  &TIMEDLY                                        @OX11307 39800000
&PCOUNT  SETA  &PUTCNT                                         @OX11307 39820000
         AGO   .OKC                                            @OX11307 39840000
.NOTOK   ANOP                                                  @OX11307 39860000
         MNOTE 0,'*** IHB086 TIMEDLY INVALID KEYWORD, 000 ASSUMED'      39880000
         MNOTE 0,'*** IHB086 PUTCNT INVALID KEYWORD, 000 ASSUMED'       39900000
&TDELAY  SETA  0                                               @OX11307 39920000
&PCOUNT  SETA  0                                               @OX11307 39940000
.OKC     ANOP                                                  @OX11307 39960000
         AIF   (N'&RESERVE GT 2).OK8A                                   40000020
         AIF   ('&IEDQE13' NE '').OK3                                   41000020
         ORG   IEDPCBPT                                                 42000020
         DC    A(&NAME) .               AVT POINTS TO FIRST PCB         43000020
         ORG                                                            44000020
         AGO   .OK4                                                     45000020
.OK3     ANOP                                                           46000020
         ORG   &IEDQE13+25                                              47000020
         DC    AL3(&NAME)               PCB POINTS TO NEXT PCB          48000020
         ORG                                                            49000020
.OK4     ANOP                                                           50000020
&IEDQE13 SETC  '&NAME'                                                  51000020
         SPACE 2                                                        52000020
*                       PROCESS CONTROL BLOCK                           53000020
*                                                                       54000020
&NAME    DS    0F                       ORIGIN ON WORD BOUNDARY         55000020
         SPACE                                                          56000020
         DC    2F'0' .                  RETRIEVE WORKAREA               57000020
         DC    3F'0'     RETRIEVE SCHEDULER QCB                         58000020
         DC    AL1((&BUFIN*16)+&BUFOUT) BUFIN/BUFOUT                    59000020
         DC    AL3(&MH)                 MESSAGE HANDLER ADDRESS         60000020
         DC    AL1(0)                   USE COUNT                       61000020
         DC    AL3(0)             LINK FIELD                            62000020
         DC    XL1'&BUFOUT'             READ-AHEAD Q BUFFER LIMIT       63000020
         AIF   ('&DATE' EQ 'NO').NDT                             S22025 63200022
         DC    VL3(IEDQB3)              DATE/TIME ROUTINE        S22025 63400022
         AGO   .LCB                                              S22025 63600022
.NDT     ANOP                                                    S22025 63800022
         DC    AL3(0)                                                   64000020
.LCB     ANOP                                                    S22025 64500022
         DC    A(0)                     LCB ADDRESS                     65000020
         DC    AL2(0)                   TSO JOB IDENTIFIER              66000020
         DC    AL2(0)                                                   67000020
         DC    A(0)                     APPL PROG TCB ADDRESS           68000020
         DC    AL1(0)                   FLAG BYTE                       69000020
         DC    AL3(0)                                                   70000020
         DC    A(0)                                                     71000020
         DC    AL1(0)                                                   72000020
         DC    AL1(0)                   UNIT COUNT                      73000020
         DC    AL2(&BUFSIZE)            BUFFER SIZE                     74000020
         DC    AL1(0&RESERVE(1)) .      HEADER BUFFER RESERVE           75000020
         DC    AL1(0&RESERVE(2)) .      TEXT BUFFER RESERVE             76000020
         DC    AL1(0)                   OPEN RETURN CODE                77000020
         AIF   ('&SFLAG' EQ 'NO').LCB1                          SA59162 78000022
         DC    AL1(0) .                 FLAG BYTE               SA59162 78200022
         AGO   .LCB2                                            SA59162 78400022
.LCB1    DC    X'80' .                  FLAG BYTE               SA59162 78600022
.LCB2    ANOP                                                   SA59162 78800022
         DC    H'&TDELAY'               TIME DELAY             @OX11307 80200000
         DC    H'&PCOUNT'               MAX CNT BETWEEN DELAYS @OX11307 80400000
         DC    H'0'                     COUNT SINCE LAST DELAY @OX11307 80600000
         DC    H'0'                     RESERVED               @OX11307 80800000
         MEND                                                           81000020
