         MACRO                                                          00050002
&NAME    PGRLSE    &MF=,&LA=,&HA=                                       00100002
         LCLB  &B1,&B11,&B2,&B22,&LISTADR                               00150002
         LCLA  &A                                                YM1995 00200002
         LCLC  &LISTR                                            YM1995 00250002
.*                                                                      00300002
         AIF   (T'&MF EQ 'O').IMM      DETERMINE FORM                   00350002
         AIF   ('&MF' EQ 'L').LIST                                      00400002
         AIF   ('&MF(1)' EQ 'E').EXECU                                  00450002
         IHBERMAC 1001,MF,&MF                                           00500002
         MEXIT                                                          00550002
.*                                                                      00600002
.**** EXECUTE FORM ****                                                 00650002
.*                                                                      00700002
.EXECU   AIF   (T'&MF(2) EQ 'O' OR '&MF(2)' EQ '').EE                   00750002
         AIF   ('&MF(2)'(1,1) EQ '(').E1                                00800002
&LISTADR SETB  1                                                        00850002
         AGO   .E1                                                      00900002
.EE      ANOP                                                           00950002
         IHBERMAC 1017,'LISTADR'                                        01000002
         MEXIT                                                          01050002
.E1      ANOP                                                           01100002
&B11     SETB  (T'&LA NE 'O' AND '&LA' NE '') IS LOW ADR TO BE UPDATED? 01150002
         AIF   (NOT &B11).E1A                                           01200002
&B1      SETB  ('&LA'(1,1) NE '(')     IS IT NOT IN A REGISTER?         01250002
.E1A     ANOP                                                           01300002
&B22     SETB  (T'&HA NE 'O' AND '&HA' NE '') IS HIGH ADR TO BE UPDATED 01350002
         AIF   (NOT &B22).E1B                                           01400002
&B2      SETB  ('&HA'(1,1) NE '(')     IS IT NOT IN A REGISTER?         01450002
.*                                                                      01500002
         AIF   (&B1 AND &B2 AND &B11 AND &B22).E17                      01550002
.*                                                                      01600002
.E1B     ANOP                                                           01650002
         AIF   ((&B11 AND &B1) OR (&B22 AND &B2)).E2                    01700002
.** OTHERWISE UPDATED PARAMETERS ARE IN REGS IF THEY EXIST **           01750002
         AIF   ('&NAME' EQ '').E3                                       01800002
&NAME    DS    0H                                                       01850002
.E3      AIF   (NOT &LISTADR).E333                                      01900002
         LA    15,&MF(2) LOAD PARAMETER LIST ADDRESS                    01950002
&LISTR   SETC  '15'                                              YM1995 02000002
         AGO   .E33                                                     02050002
.E333    ANOP                                                           02100002
&A       SETA   K'&MF-6                                          YM1995 02120002
&LISTR   SETC  '&MF'(5,&A)                                       YM1995 02150002
.E33     AIF   (&B11).E4                                                02200002
         L     0,0(&LISTR,0) LOAD LOW ADDRESS FROM LIST          YM1995 02250002
         AGO   .E6                                                      02300002
.E4      ST    &LA(1),0(&LISTR,0) UPDATE PARAMETER LIST          YM1995 02350002
         AIF   (T'&LA(1) NE 'N').E5                                     02400002
         AIF   ('&LA(1)' EQ '0').E6                                     02450002
.E5      LR    0,&LA(1) LOAD LOW ADDRESS                                02500002
.E6      AIF   (&B22).E7                                                02550002
         L     1,4(&LISTR,0) LOAD HIGH ADDRESS FROM LIST         YM1995 02600002
         AGO   .RELSVC                                                  02650002
.E7      ST    &HA(1),4(&LISTR,0) UPDATE PARAMETER LIST          YM1995 02700002
         AIF   (T'&HA(1) NE 'N').E8                                     02750002
         AIF   ('&HA(1)' EQ '1').RELSVC                                 02800002
.E8      LR    1,&HA(1) LOAD HIGH ADDRESS                               02850002
         AGO   .RELSVC                                                  02900002
.*                                                                      02950002
.** ONE AND ONLY ONE OF THE PARAMETERS TO BE UPDATED IS NOT IN A REG ** 03000002
.*                                                                      03050002
.E2      CNOP  0,4                                                      03100002
         AIF   ('&NAME' EQ '').E9                                       03150002
&NAME    DS    0H                                                       03200002
.E9      AIF   (NOT &LISTADR).E999                                      03250002
         LA    15,&MF(2) LOAD PARAMETER LIST ADDRESS                    03300002
&LISTR   SETC  '15'                                              YM1995 03350002
         AGO   .E99                                                     03450002
.E999    ANOP                                                           03500002
&A       SETA   K'&MF-6                                          YM1995 03520002
&LISTR   SETC  '&MF'(5,&A)                                       YM1995 03550002
.E99     B     *+8 BRANCH AROUND ADCON                                  03650002
         AIF   (&B1 AND &B11).E10                                       03700002
         DC    A(&HA) HIGH ADDRESS                                      03750002
         MVC   4(4,&LISTR),*-4 UPDATE HIGH ADDR IN PARAMETER LISTYM1995 03850002
         AIF   (&B11).E11                                               03900002
         LM    0,1,0(&LISTR) LOAD ADDRESSES                      YM1995 03950002
         AGO   .RELSVC                                                  04000002
.E11     ST    &LA(1),0(&LISTR,0) UPDATE LOW ADDR IN PARAM LIST  YM1995 04050002
         AIF   (T'&LA(1) NE 'N').E12                                    04100002
         AIF   ('&LA(1)' EQ '0').E13                                    04150002
.E12     LM    0,1,0(&LISTR) LOAD ADDRESSES                      YM1995 04200002
         AGO   .RELSVC                                                  04250002
.E13     L     1,*-14 LOAD HIGH ADDRESS                                 04300002
         AGO   .RELSVC                                                  04350002
.E10     DC    A(&LA) LOW ADDRESS                                       04400002
         MVC   0(4,&LISTR),*-4 UPDATE LOW ADDR IN PARAMETER LIST YM1995 04500002
         AIF   (&B22).E14                                               04550002
         LM    0,1,0(&LISTR) LOAD ADDRESSES                      YM1995 04600002
         AGO   .RELSVC                                                  04650002
.E14     ST    &HA(1),4(&LISTR,0) UPDATE HIGH ADDR IN PARAM LIST YM1995 04700002
         AIF   (T'&HA(1) NE 'N').E15                                    04750002
         AIF   ('&HA(1)' EQ '1').E16                                    04800002
.E15     LM    0,1,0(&LISTR) LOAD ADDRESSES                      YM1995 04850002
         AGO   .RELSVC                                                  04900002
.E16     L     0,*-14 LOAD LOW ADDRESS                                  04950002
         AGO   .RELSVC                                                  05000002
.*                                                                      05050002
.** BOTH PARAMETERS ARE TO BE MODIFIED, NEITHER IS IN A REGISTER **     05100002
.*                                                                      05150002
.E17     CNOP  0,4                                                      05200002
         AIF   ('&NAME' EQ '').E18                                      05250002
&NAME    DS    0H                                                       05300002
.E18     AIF   (NOT &LISTADR).E1888                                     05350002
         LA    15,&MF(2) LOAD PARAMETER LIST ADDRESS                    05400002
&LISTR   SETC  '15'                                              YM1995 05450002
         AGO   .E188                                                    05550002
.E1888   ANOP                                                           05600002
&A       SETA  K'&MF-6                                           YM1995 05700002
&LISTR   SETC  '&MF'(5,&A)                                       YM1995 05720002
.E188    B     *+12 BRANCH AROUND ADCONS                                05750002
         DC    A(&LA) LOW ADDRESS                                       05800002
         DC    A(&HA) HIGH ADDRESS                                      05850002
         MVC   0(8,&LISTR),*-8 UPDATE PARAMETER LIST             YM1995 05950002
         LM    0,1,0(&LISTR)                                     YM1995 06000002
         AGO   .RELSVC                                                  06050002
.*                                                                      06100002
.**** LIST FORM ****                                                    06150002
.*                                                                      06200002
.LIST    AIF   (T'&LA EQ 'O').L0                                        06250002
         AIF   ('&LA'(1,1) NE '(').L0                                   06300002
         IHBERMAC 69                                                    06350002
         MEXIT                                                          06400002
.L0      AIF   (T'&HA EQ 'O').L1                                        06450002
         AIF   ('&HA'(1,1) NE '(').L1                                   06500002
         IHBERMAC 69                                                    06550002
         MEXIT                                                          06600002
.L1      ANOP                                                    YM0449 06650002
         AIF   (T'&LA NE 'O' AND '&LA' NE '').L3                        06850002
&NAME    DC    A(0) LOW ADDRESS                                  YM0449 06900002
         AGO   .L4                                                      06950002
.L3      ANOP                                                    YM0449 06960002
&NAME    DC    A(&LA) LOW ADDRESS                                YM0449 07000002
.L4      AIF   (T'&HA NE 'O' AND '&HA' NE '').L5                        07050002
         DC    A(0) HIGH ADDRESS                                 YM0449 07100002
         AGO   .L6                                                      07150002
.L5      DC    A(&HA) HIGH ADDRESS                                      07200002
.L6      MEXIT                                                          07250002
.*                                                                      07300002
.**** IMMEDIATE FORM ****                                               07350002
.*                                                                      07400002
.IMM     AIF   (T'&LA  NE 'O' AND '&LA' NE '').I0                       07450002
         IHBERMAC 1017,LA                                               07500002
         MEXIT                                                          07550002
.I0      AIF   (T'&HA NE 'O' AND '&HA' NE '').I1                        07600002
         IHBERMAC 1017,HA                                               07650002
         MEXIT                                                          07700002
.I1      ANOP                                                           07750002
&B1      SETB  ('&LA'(1,1) NE '(')                                      07800002
&B2      SETB  ('&HA'(1,1) NE '(')                                      07850002
         AIF   (NOT(&B1 OR &B2)).I2                                     07900002
         CNOP  0,4                                                      07950002
.I2      AIF   ('&NAME' EQ '').I3                                       08000002
&NAME    DS    0H                                                       08050002
.I3      AIF   (NOT(&B1 OR &B2)).I8                                     08100002
         B     *+4+(&B1*4)+(&B2*4)                                      08150002
         AIF   (NOT &B1).I4                                             08200002
         DC    A(&LA) LOW ADDRESS                                       08250002
.I4      AIF   (NOT &B2).I5                                             08300002
         DC    A(&HA) HIGH ADDRESS                                      08350002
.I5      AIF   (NOT(&B1 AND &B2)).I6                                    08400002
         LM    0,1,*-8 LOAD LOW AND HIGH ADDRESS                        08450002
         AGO   .RELSVC                                                  08500002
.I6      AIF   (NOT &B1).I7                                             08550002
         AIF   (T'&HA(1) NE 'N').I9                                     08600002
         AIF   ('&HA(1)' EQ '1').I10                                    08650002
.I9      LR    1,&HA(1) LOAD HIGH ADDRESS                               08700002
         L     0,*-6 LOAD LOW ADDRESS                                   08750002
         AGO   .RELSVC                                                  08800002
.I10     L     0,*-4 LOAD LOW ADDRESS                                   08850002
         AGO   .RELSVC                                                  08900002
.I7      AIF   (T'&LA(1) NE 'N').I11                                    08950002
         AIF   ('&LA(1)' EQ '0').I12                                    09000002
.I11     LR    0,&LA(1) LOAD LOW ADDRESS                                09050002
         L     1,*-6 LOAD HIGH ADDRESS                                  09100002
         AGO   .RELSVC                                                  09150002
.I12     L     1,*-4 LOAD HIGH ADDRESS                                  09200002
         AGO   .RELSVC                                                  09250002
.I8      AIF   (T'&LA(1) NE 'N').I13                                    09300002
         AIF   ('&LA(1)' EQ '0').I14                                    09350002
.I13     LR    0,&LA(1) LOAD LOW ADDRESS                                09400002
.I14     AIF   (T'&HA(1) NE 'N').I15                                    09450002
         AIF   ('&HA(1)' EQ '1').RELSVC                                 09500002
.I15     LR    1,&HA(1) LOAD HIGH ADDRESS                               09550002
.RELSVC  SVC   112 ISSUE SVC                                            09600002
         MEND                                                           09650002
