         MACRO                                                          00050000
&NAME    POINT &DCB,&LOC,&RPL=                                          00100000
.*       CHANGE LEVEL = 08                                              00150000
.*       DATE OF LAST CHANGE = 24 MARCH 72  ( 72*084 )                  00200000
         LCLB  &NOGO                                                    00250000
         AIF   ('&RPL' NE '').JES                                       00300000
         AIF   ('&DCB' EQ '').ERR1                                      00350000
.R1      AIF   ('&LOC' EQ '').ERR2                                      00400000
         AIF   (&NOGO EQ 1).TERM                                        00450000
&NAME    IHBINNRA &DCB,&LOC                                             00500000
         L     15,84(0,1)               LOAD POINT RTN ADDR             00550000
         BAL   14,4(15,0)               LINK TO POINT ROUTINE           00600000
         MEXIT                                                          00650000
.ERR1    IHBERMAC 6                                                     00700000
&NOGO    SETB  1                                                        00750000
         AGO   .R1                                                      00800000
.ERR2    IHBERMAC 3                                                     00850000
.TERM    ANOP                                                           00900000
         MEXIT                                                          00950000
.JES     ANOP                                                           01000000
&NAME    DS    0H                                                       01050000
         AIF   ('&RPL'(1,1) EQ '(').RPLR                                01100000
         LA    1,&RPL                   LOAD RPL ADDR                   01150000
         AGO   .AREG                                                    01200000
.RPLR    LR    1,&RPL(1)                LOAD RPL ADDR VIA REG           01250000
.AREG    LA    0,X'03'                  INDICATE POINT IN REG           01300000
         L     15,24(1)                 LOAD ACB ADDR FROM RPL          01350000
         L     15,8(15)                 LOAD JES INTERFACE MOD ADDR     01600000
         BALR  14,15                    LINK TO INTERFACE ROUTINE       01700000
         MEND                                                           01800000
