         MACRO                                                          07000020
&NAME    PROTECT   &REG                                                 14000020
.*A 210500,211000                                                A43356 14050001
.*C 280000                                                       A43356 14100001
         AIF   ('&REG' EQ  '').ERR1                                     21000020
         AIF   ('&NAME' EQ '').NLBL                              A43356 21050001
&NAME    DS    0H                                                A43356 21100001
.NLBL    AIF   ('&REG' EQ '(1)').GOEN                            A43356 28000001
         AIF   ('&REG'(1,1) NE '(').GADD                                35000020
         LR    1,&REG(1)           LOAD PARAMETER REGISTER              42000020
         AGO   .GOEN                                                    49000020
.GADD    LA    1,&REG              LOAD PARAMETER REGISTER              56000020
.GOEN    SVC   98                  ISSUE PROTECT SVC                    63000020
         AGO   .END                                                     70000020
.ERR1    MNOTE 'PARAMETER NOT SPECIFIED'                                77000020
.END     MEND                                                           84000020
