         MACRO                                                          00020000
&NAME    PRTOV &DCB,&NO,&EXIT                                           00040000
         LCLA  &CTR                                                     00060000
         LCLB  &SWA,&SWB,&ERR                                           00080019
         AIF   ('&DCB' EQ '').E1             TEST FOR DCB ADDR MISSING  00100000
.D1      AIF   ('&NO' EQ '').E3                                         00120019
         AIF   ('&NO' NE '9' AND '&NO' NE '12').E2 TEST FOR INVALID NO. 00140000
         AIF   (&ERR).END                                               00150019
         AIF   ('&EXIT' EQ '').NOEXIT        IF NO EXIT TAKE BRANCH     00160000
&SWA     SETB  ('&DCB'(1,1) NE '(')                                     00180000
&SWB     SETB  ('&EXIT'(1,1) NE '(')                                    00200000
         AIF   ('&DCB'(1,1) EQ '(').REGDCB   TEST FOR DCB REG           00220019
&NAME    LA    14,&DCB                           LOAD  DCB ADDR         00240000
         AGO   .CONTA                                                   00250000
.REGDCB  ANOP                                                           00280000
&NAME    LR    14,&DCB(1)              LOAD DCB ADDR                    00330000
.CONTA   ANOP                                                           00340000
&CTR     SETA  52+2*&SWA+2*&SWB                                         00350000
         TM    17(14),X'48'            IS DEVICE A PRINTER              00360000
         BC    14,*+&CTR               IF NOT BRANCH AROUND             00370000
&CTR     SETA  &CTR-8                                                   00372000
         TM    17(14),X'B0'            FURTHER TESTING FOR PRINTER      00374000
         BNZ   *+&CTR                  IF NOT PRINTER BRANCH AROUND     00376000
         L     1,68(0,14)                    LOAD IOB ADDR FROM DCB     00380019
         L     1,12(0,1)                     LOAD ECB ADDR FROM IOB     00400019
         TM    0(1),X'40'                        TEST  COMPLETION BIT   00420000
         BO    *+10                              BRANCH  IF BIT ON      00440000
         LA    0,1                           SET WAIT COUNT TO ONE      00460019
         SVC   1                                 ISSUE  WAIT SVC        00480000
         AIF   ('&DCB'(1,1) EQ '(').DCBREG   TEST FOR DCB REG           00500019
         LA    1,&DCB                            LOAD  DCB ADDR         00520000
         AGO   .CONTB                                                   00540000
.DCBREG  LR    1,&DCB(1)                         LOAD  DCB ADDR         00560000
.CONTB   ANOP                                                           00580000
&CTR     SETA  80-((&NO/3)*16)               COMPUTE MASK FOR TM        00600000
         TM    44(1),&CTR                        TEST BIT FOR OVERFLOW  00620000
&CTR     SETA  255-&CTR                                                 00640000
         AIF   ('&EXIT'(1,1) EQ '(').REGEX                              00660000
         BZ    *+14                              IF OFF BRANCH AROUND   00680000
         NI    44(1),&CTR                        IF ON TURN OFF AND     00700000
         LA    15,&EXIT                      LOAD ADDR OF USER RTN      00720019
         AGO   .FINISH                                                  00740000
.REGEX   BZ    *+12                              IF OFF BRANCH AROUND   00760000
         NI    44(1),&CTR                        IF ON TURN OFF AND     00780000
         LR    15,&EXIT(1)                   LOAD ADDR OF USER RTN      00800019
.FINISH  BALR  14,15                             AND LINK TO IT         00820000
         AGO   .END                                                     00840000
.NOEXIT  AIF   ('&DCB'(1,1) EQ '(').DCBRG    TEST FOR DCB REG           00860019
&NAME    LA    1,&DCB                            LOAD DCB ADDR          00880000
         AGO   .CONTC                                                   00900000
.DCBRG   ANOP                                                           00920000
&NAME    LR    1,&DCB(1)                         LOAD DCB ADDR          00940000
.CONTC   TM    17(1),X'48'                       IS DEVICE A PRINTER    00960000
         BC    14,*+16                       IF NOT BRANCH AROUND       00970000
         TM    17(1),X'B0'            FURTHER TESTING FOR PRINTER       00980000
         BNZ   *+8                    IF NOT BR AROUND                  00990000
&CTR     SETA  80-((&NO/3)*16)               COMPUTE MASK FOR OI        01000000
         OI    18(1),&CTR                        SET BIT ON IN DCB      01020000
         MEXIT                                                          01040000
.E1      IHBERMAC 6                     &DCB MISSING                    01050019
&ERR     SETB  1                        INDICATE ERROR                  01060019
         AGO   .D1                      AND CONTINUE DIAGNOSIS          01070019
.E2      IHBERMAC 37,,&NO               &NO INVALID                     01080019
         MEXIT                                                          01090019
.E3      IHBERMAC 3                     &NO MISSING                     01100019
.END     MEND                                                           01160000
