         MACRO                                                          00050002
&NAME    PURGEDQ    &ASID=,&ASIDTCB=,&RMTR=,&MF=I                       00100002
         AIF   ('&MF' EQ 'I').I1        STANDARD FORM                   00150002
         AIF   ('&MF' EQ 'L').L1        LIST FORM                       00200002
         AIF (N'&MF NE 2).ERR2          WRONG FORM                      00210002
         AIF   ('&MF(1)' EQ 'E').EX1    EXECUTE FORM                    00250002
.ERR2    ANOP                           MF SPECIFIED WRONG              00260002
         IHBERMAC   1001,MF,&MF                                         00300002
         MEXIT                                                          00350002
.I1      ANOP                                                           00400002
         CNOP  0,4                                                      00450002
&NAME    BAL   1,*+16         BRANCH AROUND PARAMETER LIST              00500002
         DC    A(0) ADDRESS OF ASID PARAMETER                           00550002
         DC    A(0) ADDRESS OF ASIDTCB PARAMETER                        00600002
         DC    A(0) ADDRESS OF RMTR                                     00650002
         AIF   ('&ASID' EQ '').OP2    ASID PRESENT?                     00700002
         STORADR    0,&ASID                                             00750002
.OP2     ANOP                                                           00800002
         AIF   ('&ASIDTCB' EQ '').OP3   ASIDTCB PRESENT?                00850002
         STORADR    4,&ASIDTCB                                          00900002
.OP3     ANOP                                                           00950002
         AIF   ('&RMTR' EQ '').ERR1     RMTR PRESENT ?                  01000002
         STORADR    8,&RMTR                                             01050002
         SVC   123                      ISSUE SVC                       01100002
         MEXIT                                                          01200002
.ERR1    ANOP                                                           01250002
         IHBERMAC  1017,RMTR                                            01300002
         MEXIT                                                          01350002
.L1      ANOP  LIST FORM                                                01400002
&NAME    DS    0A     FULLWORD ALIGNMENT                                01500002
         AIF   ('&ASID' NE '').L2  ASID PRESENT ?                       01550002
         DC    A(0) ADDRESS OF ASID                                     01600002
         AGO   .L3  GET ASIDTCB                                         01650002
.L2      ANOP  ASID SPECIFIED                                           01700002
         AIF   ('&ASID'(1,1) EQ '(').ERR69                              01750002
         DC    A(&ASID)  ADDRESS OF ASID                                01800002
.L3      ANOP  FORM ASIDTCB ADDRESS                                     01850002
         AIF   ('&ASIDTCB' NE '').L4    ASIDTCB PRESENT                 01900002
         DC    A(0) ASIDTCB NOT GIVEN                                   01950002
         AGO   .L5  GET RMTR                                            02000002
.L4      ANOP                                                           02050002
         AIF   ('&ASIDTCB'(1,1) EQ '(').ERR69                           02100002
         DC    A(&ASIDTCB)    ADDRESS OF ASIDTCB                        02150002
.L5      ANOP  PICK UP RMTR ADDRESS                                     02200002
         AIF   ('&RMTR' NE '').L6  RMTR GIVEN ?                         02250002
         DC    A(0) RMTR NOT GIVEN                                      02300002
         AGO   .L7                                                      02350002
.L6      ANOP                                                           02400002
         AIF   ('&RMTR'(1,1) EQ '(').ERR69                              02450002
         DC    A(&RMTR)  GET ADDRESS OF RMTR                            02500002
.L7      ANOP                                                           02550002
         MEXIT                                                          02600002
.EX1     ANOP                      EXECUTE FORM                         02650002
&NAME    DS    0H                       HALFWORD BOUNDARY               02700002
         AIF   ('&MF(2)' EQ '(1)').EX2       ADDR IN REGISTER 1         02800002
         AIF   ('&MF(2)'(1,1) EQ '(').REG    REGISTER NOTATION          02850002
         LA    1,&MF(2)                                                 02900002
         AGO   .EX2                                                     02950002
.REG     ANOP                                                           03000002
         LR    1,&MF(2)                 LOAD ADDRESS INTO REG 1         03050002
.EX2     ANOP                                                           03100002
         AIF   ('&ASID' EQ '').EXOP2   IS ASID SPECIFIED                03150002
         STORADR              0,&ASID                                   03200002
.EXOP2   ANOP                                                           03250002
         AIF   ('&ASIDTCB' EQ '').EXOP3   IS ASIDTCB SPECIFIED          03300002
         STORADR              4,&ASIDTCB                                03350002
.EXOP3   ANOP                                                           03400002
         AIF   ('&RMTR' EQ '').SVC                                      03450002
         STORADR              8,&RMTR                                   03500002
.SVC     ANOP                                                           03550002
         SVC   123                      ISSUE SVC                       03600002
         MEXIT                                                          03700002
.ERR69   ANOP                                                           03750002
         IHBERMAC 69                                                    03800002
         MEND                                                           03850002
