         MACRO                                                          00050000
&NAME    PUT   &DCB,&AREA,&RPL=                                         00100000
.*       CHANGE LEVEL = 06                                              00150000
.*       DATE OF LAST CHANGE = 24 MARCH 72  ( 72*084 )                  00200000
         AIF   ('&DCB' NE '').NJES      NON-JES MACRO EXPANSION         00250000
         AIF   ('&RPL' NE '').JES       JES MACRO EXPANSION             00300000
         IHBERMAC 06                                                    00350000
         MEXIT                                                          00400000
.NJES    ANOP                                                           00450000
&NAME    IHBINNRA &DCB,&AREA                                            00500000
         L     15,48(0,1)               LOAD PUT ROUTINE ADDR           00550000
         BALR  14,15                    LINK TO PUT ROUTINE             00600000
         MEXIT                                                          00650000
.JES     ANOP                                                           00700000
&NAME    DS    0H                                                       00750000
         AIF   ('&RPL'(1,1) EQ '(').RPLR                                00800000
         LA    1,&RPL                   LOAD RPL ADDR                   00850000
         AGO   .AREG                                                    00900000
.RPLR    LR    1,&RPL(1)                LOAD RPL ADDR VIA REG           00950000
.AREG    LA    0,X'01'                  INDICATE PUT IN REG             01000000
         L     15,24(1)                 LOAD ACB ADDR FROM RPL          01050000
         L     15,8(15)                 LOAD JES INTERFACE MOD ADDR     01300000
         BALR  14,15                    LINK TO INTERFACE ROUTINE       01400000
         MEND                                                           01500000
