         MACRO                                                          00050000
&NAME    PUTGET &PARM=,&UPT=,&ECT=,&ECB=,&OUTPUT=,&TERMPUT=,&TERMGET=, *00100000
               &ENTRY=,&MF=                                             00150000
.********************************************************************** 00200000
.*                                                                    * 00250000
.*                                                                    * 00300000
.*                                                                    * 00350000
.*                                                                    * 00400000
.*STATUS:                                                             * 00450000
.*   CHANGE LEVEL 000.                                                * 00500000
.*                                                                    * 00550000
.*FUNCTION:                                                           * 00600000
.*   THE PUTGET MACRO EXAMINES PARAMETERS SPECIFIED IN THE PUTGET     * 00650000
.*   MACRO INSTRUCTION AND BUILDS A PARAMETER BLOCK TO BE USED BY THE * 00700000
.*   PUTGET SERVICE ROUTINE (REFER TO SECTION 3.48.10A.1 FOR THE      * 00750000
.*   PARAMETER BLOCK FORMAT).                                         * 00800000
.*   IN THE LIST FORM, THE PUTGET MACRO GENERATES THE PUTGET          * 00850000
.*   PARAMETER BLOCK CONSISTING OF 2 WORDS OF CONTROL (CONTROL,       * 00900000
.*   TOUTPUT OPTIONS, CONTROL, TINPUT OPTIONS), THE ADDRESS OF THE    * 00950000
.*   OUTPUT LINE, AND THE ADDRESS OF THE INPUT BUFFER.                * 01000000
.*   IN THE EXECUTE FORM OF THE PUTGET MACRO, CODE IS GENERATED       * 01050000
.*   WHICH WILL RESET THE PARAMETER BLOCK IF REQUIRED AND LOAD THE    * 01100000
.*   ADDRESSES OF THE UPT, ECT, ECB, AND PARAMETER BLOCK INTO THE     * 01150000
.*   SERVICE ROUTINE PARAMETER LIST IF SPECIFIED. A LINK MACRO WILL   * 01200000
.*   BE GENERATED TO INVOKE THE PUTGET SERVICE ROUTINE UNLESS AN      * 01250000
.*   ENTRY POINT IS SPECIFIED. IF AN ENTRY POINT IS SPECIFIED, THE    * 01300000
.*   CODE TO ENABLE A BRANCH AND LINK WILL BE GENERATED.              * 01350000
.*                                                                    * 01400000
.*ENTRY POINTS:                                                       * 01450000
.*   PUTGET MACRO CALL - ONLY ENTRY POINT                             * 01500000
.*                                                                    * 01550000
.*INPUT:                                                              * 01600000
.*   PARAMETERS SPECIFIED IN THE PUTLINE MACRO FORMAT(FOR FORMAT      * 01650000
.*   SPECIFICATIONS REFER TO SECTION 3.48.10A.1).                     * 01700000
.*                                                                    * 01750000
.*OUTPUT:                                                             * 01800000
.*   IN THE L-FORM, A 4-WORD PARAMETER BLOCK (REFER TO SECTION        * 01850000
.*   3.48.10A.1) CONSISTING OF CONTROL WHICH IS SET BY THE MACRO, THE * 01900000
.*   ADDRESS OF THE OUTPUT LINE, AND THE ADDRESS OF THE INPUT BUFFER  * 01950000
.*   IN THE E-FORM, CODE WHICH RESETS CONTROL IN THE PARAMETER BLOCK, * 02000000
.*   PLACES THE ADDRESSES OF THE SERVICE ROUTINE PARAMETER BLOCK,     * 02050000
.*   UPT, ECT, AND ECB IN THE SERVICE ROUTINE PARAMETER LIST AS       * 02100000
.*   SPECIFIED, AND INVOKES THE SERVICE ROUTINE.                      * 02150000
.*                                                                    * 02200000
.*EXTERNAL REFERENCES:                                                * 02250000
.*   LINK MACRO.                                                      * 02300000
.*                                                                    * 02350000
.*EXITS,NORMAL:                                                       * 02400000
.*   IN THE L-FORM, RETURN TO CALLER.                                 * 02450000
.*   IN THE E-FORM, CODE IS GENERATED TO INVOKE THE PUTGET SERVICE    * 02500000
.*   ROUTINE ACCORDING TO THE STANDARD LINKAGE CONVENTIONS (REFER TO  * 02550000
.*   SECTION 3.48.1.5).                                               * 02600000
.*                                                                    * 02650000
.*EXITS,ERROR:                                                        * 02700000
.*   INVALID INPUT.                                                   * 02750000
.*                                                                    * 02800000
.*TABLES/WORK AREAS:                                                  * 02850000
.*   SERVICE ROUTINE PARAMETER LIST - A TABLE OF POINTERS TO THE UPT, * 02900000
.*   ECT, ECB, AND SERVICE ROUTINE PARAMETER BLOCK.                   * 02950000
.*   SERVICE ROUTINE PARAMETER BLOCK - A CONTROL TABLE SET ACCORDING  * 03000000
.*   TO THE SPECIFIED MACRO PARAMETERS, THE ADDRESS OF THE OUTPUT     * 03050000
.*   LINE, AND THE ADDRESS OF THE INPUT BUFFER.                       * 03100000
.*                                                                    * 03150000
.*ATTRIBUTES:                                                         * 03200000
.*   SERIALLY REUSABLE.                                               * 03250000
.*                                                                    * 03300000
.*NOTES:                                                              * 03350000
.*   DATE OF CURRENT RELEASE :                                        * 03400000
.*      01/22/70                                                      * 03450000
.*   PREVIOUS RELEASE DATES :                                         * 03500000
.*      12/12/69                                                      * 03550000
.*      10/22/69                                                      * 03600000
.*                                                                    * 03650000
.*                                                                    * 03700000
.*                                                                    * 03750000
.*                                                                    * 03800000
.*                                                                    * 03850000
.********************************************************************** 03900000
         LCLA  &A                                                       03950000
         LCLB  &B1,&B2,&B3,&B4,&B5,&B6,&B7,&B8,&B9,&B10                 04000000
         LCLB  &BS1,&BS2,&BS3,&BS4                                      04050000
         LCLC  &C                                                       04100000
.E1      AIF   (T'&MF EQ 'O').ERR1     NO MF PARAMETER                  04150000
         AIF   (N'&SYSLIST EQ 0).MF1   POSITIONAL PARAMETERS INVALID    04200000
         AIF   (T'&SYSLIST(1) NE 'O' OR N'&SYSLIST NE 1).ERR3           04250000
.MF1     AIF   ('&MF' EQ 'L').L1       BRANCH TO LIST FORM              04300000
.********************************************************************** 04350000
.*                                                                    * 04400000
.*                               EXECUTE FORM                         * 04450000
.*                                                                    * 04500000
.********************************************************************** 04550000
         AIF   ('&MF(1)' NE 'E').ERR1                                   04600000
         AIF   (T'&NAME EQ 'O').E2                                      04650000
&NAME    DS    0H                                                       04700000
.E2      AIF   (T'&MF(2) EQ 'O').ERR1                                   04750000
         AIF   ('&MF(2)' EQ '(1)').E3   PARM LIST ADDR IN REG 1         04800000
         AIF   ('&MF(2)'(1,1) EQ '(').WARN3                             04850000
.E2A     LA    1,&MF(2)     LOAD PARM LIST ADDR                         04900000
.E3      AIF   (T'&UPT EQ 'O').E4       UPT OMITTED                     04950000
         AIF   ('&UPT'(1,1) EQ '(').E3A                                 05000000
         LA    14,&UPT        LOAD UPT ADDR                             05050000
         ST    14,0(0,1)     STORE UPT ADDR IN PARM LIST                05100000
         AGO   .E4                                                      05150000
.E3A     ANOP                                                           05200000
&A       SETA  K'&UPT-2                                                 05250000
&C       SETC  '&UPT'(2,&A)                                             05300000
         ST    &C,0(0,1)     STORE UPT ADDR IN PARM LIST                05350000
.E4      AIF   (T'&ECT EQ 'O').E5     ECT OMITTED                       05400000
         AIF   ('&ECT'(1,1) EQ '(').E4A LOAD ECT ADDR                   05450000
         LA    14,&ECT                 STORE ECT ADDR IN PARM LIST      05500000
         ST    14,4(0,1)                                                05550000
         AGO   .E5                                                      05600000
.E4A     ANOP                                                           05650000
&A       SETA  K'&ECT-2                                                 05700000
&C       SETC  '&ECT'(2,&A)                                             05750000
         ST    &C,4(0,1)               STORE ECT ADDR IN PARM LIST      05800000
.E5      AIF   (T'&ECB EQ 'O').E6       ECB OMITTED                     05850000
         AIF   ('&ECB'(1,1) EQ '(').E5A                                 05900000
         LA    14,&ECB        LOAD ECB ADDR                             05950000
         ST    14,8(0,1)     STORE ECB ADDR IN PARM LIST                06000000
         AGO   .E6                                                      06050000
.E5A     ANOP                                                           06100000
&A       SETA  K'&ECB-2                                                 06150000
&C       SETC  '&ECB'(2,&A)                                             06200000
         ST    &C,8(0,1)     STORE ECB ADDR IN PARM LIST                06250000
.E6      AIF   (T'&PARM EQ 'O').E6B     PARM OMITTED                    06300000
         AIF   ('&PARM'(1,1) EQ '(').E6A                                06350000
         LA    14,&PARM       LOAD PARM ADDR                            06400000
         ST    14,12(0,1)    STORE PARM ADDR IN PARM LIST               06450000
         AGO   .E7                                                      06500000
.E6A     ANOP                                                           06550000
&A       SETA  K'&PARM-2                                                06600000
&C       SETC  '&PARM'(2,&A)                                            06650000
         ST    &C,12(0,1)    STORE PARM ADDR IN PARM LIST               06700000
         AIF   (N'&OUTPUT EQ 0 AND N'&TERMPUT EQ 0 AND N'&TERMGET      *06750000
               EQ 0).E11                                                06800000
         LR    14,&C          LOAD PARM ADDR                            06850000
         AGO   .E7                                                      06900000
.E6B     AIF   (N'&OUTPUT EQ 0   AND N'&TERMPUT EQ 0   AND N'&TERMGET  *06950000
               EQ 0).E11                                                07000000
         L     14,12(0,1)     LOAD PARM BLOCK ADDR                      07050000
.E7      AIF   (N'&OUTPUT EQ 0   AND N'&TERMPUT EQ 0).E10               07100000
&A       SETA  N'&OUTPUT                                                07150000
         AIF   (&A EQ 0).E9        OUTPUT OMITTED                       07200000
         AIF   ('&OUTPUT' EQ '()').E7I       ALL OPERANDS OMITTED       07250000
         AIF   (&A GT 3).ERR6           TOO MANY OPERANDS               07300000
         AIF   (&A EQ 1).E7I            OUTPUT LINE ADDR ONLY           07350000
.E7A     AIF   (T'&OUTPUT(&A) EQ 'O').E7H    OMITTED OPERAND            07400000
         AIF   ('&OUTPUT(&A)' NE 'PTBYPS').E7B                          07450000
&B3      SETB  1                                                        07500000
&B5      SETB  1                                                        07550000
         AGO   .E7D                                                     07600000
.E7B     AIF   ('&OUTPUT(&A)' NE 'TERM').E7B0                           07650000
         AIF   (('&OUTPUT(2)' EQ 'MULTLVL' OR '&OUTPUT(3)' EQ          *07700000
               'MULTLVL') AND &A EQ 3).ERR2  TERM MUST BE SINGLE        07750000
         AGO   .E7B01                                                   07750100
.E7B0    AIF   ('&OUTPUT(&A)' NE 'ATTN').E7B1                           07750400
         AIF   (('&OUTPUT(2)' EQ 'MULTLVL' OR '&OUTPUT(3)' EQ          *07750800
               'MULTLVL') AND &A EQ 3).ERR2  ATTN MUST BE SINGLE        07751200
&B9      SETB  1                                                        07752000
.E7B01   ANOP                                                           07752100
&B10     SETB  1                                                        07752400
         AGO   .E7B2                                                    07754000
.E7B1    AIF   ('&OUTPUT(&A)' NE 'MODE').E7C                            07760000
         AIF   (('&OUTPUT(2)' EQ 'MULTLVL' OR '&OUTPUT(3)' EQ          *07770000
               'MULTLVL') AND &A EQ 3).ERR2  MODE MUST BE SINGLE        07780000
.E7B2    ANOP                                                           07790000
&B4      SETB  1                                                        07800000
         AGO   .E7D                                                     07850000
.E7C     AIF   ('&OUTPUT(&A)' NE 'PROMPT').E7E                          07900000
&B3      SETB  1                                                        07950000
&B10     SETB  1                                                        07960001
.E7D     AIF   (&BS1).ERR6              MUTUALLY EXCLUSIVE OPERANDS     08000000
&BS1     SETB  1                                                        08050000
         AGO   .E7H                                                     08100000
.E7E     AIF   ('&OUTPUT(&A)' NE 'MULTLVL').E7F                         08150000
         AIF   (('&OUTPUT(2)' EQ 'MODE' OR '&OUTPUT(3)' EQ 'MODE'      *08200000
               OR '&OUTPUT(2)' EQ 'ATTN' OR '&OUTPUT(3)' EQ 'ATTN')    *08210000
               AND &A EQ 3).ERR5        MULTLVL MUST BE PROMPT          08212000
         AIF   (('&OUTPUT(2)' EQ 'TERM' OR '&OUTPUT(3)' EQ 'TERM')     *08220000
               AND &A EQ 3).ERR5        MULTLVL MUST BE PROMPT          08250000
&B2      SETB  1                                                        08300000
         AGO   .E7G                                                     08350000
.E7F     AIF   ('&OUTPUT(&A)' NE 'SINGLE').ERR6                         08400000
&B1      SETB  1                                                        08450000
.E7G     AIF   (&BS2).ERR6              MUTUALLY EXCLUSIVE OPERANDS     08500000
&BS2     SETB  1                                                        08550000
.E7H     ANOP                                                           08600000
&A       SETA  &A-1                                                     08650000
         AIF   (&A NE 1).E7A                                            08700000
.E7I     AIF   (&BS1).E7J               SET DEFAULT VALUES              08750000
&B3      SETB  1                                                        08800000
.E7J     AIF   (&BS2).E7K               SET DEFAULT VALUES              08850000
&B1      SETB  1                                                        08900000
.E7K     MVI   0(14),B'000&B1.0&B2.0&B3'          SET CONTROL FIELD     08950000
         MVI   1(14),B'&B4.00&B5.&B9.000'         SET CONTROL FIELD     09000000
.E7K1    MVI   8(14),B'000&B10.0000'              SET INPUT CONTROL     09030000
.E8      AIF   (T'&OUTPUT(1) EQ 'O' OR '&OUTPUT' EQ '()').WARN1         09050000
         AIF   ('&OUTPUT(1)'(1,1) EQ '(').E8A                           09100000
         LA    0,&OUTPUT(1)        LOAD ADDR OF OUTPUT                  09150000
         ST    0,4(0,14)          STORE ADDR OF OUTPUT                  09200000
         AGO   .E8B                                                     09250000
.E8A     ANOP                                                           09300000
&A       SETA  K'&OUTPUT(1)-2                                           09350000
&C       SETC  '&OUTPUT(1)'(2,&A)                                       09400000
         ST    &C,4(0,14)         STORE ADDR OF OUTPUT                  09450000
.E8B     ANOP                                                           09500000
&B3      SETB  0                                                        09550000
&B4      SETB  0                                                        09600000
&B5      SETB  0                                                        09650000
&BS1     SETB  0                                                        09700000
&BS2     SETB  0                                                        09750000
.E9      ANOP                                                           09800000
&A       SETA  N'&TERMPUT                                               09850000
         AIF   (&A EQ 0).E10            NO TERMPUT OPERANDS             09900000
         AIF   ('&TERMPUT' EQ '()').E9O      ALL OPERANDS OMITTED       09950000
         AIF   (&A GT 4).ERR7           TOO MANY OPERANDS               10000000
.E9A     AIF   (T'&TERMPUT(&A) EQ 'O').E9N   OMITTED OPERAND            10050000
         AIF   ('&TERMPUT(&A)' NE 'BREAKIN').E9B                        10100000
&B5      SETB  1                                                        10150000
         AGO   .E9C                                                     10200000
.E9B     AIF   ('&TERMPUT(&A)' NE 'NOBREAK').E9D                        10250000
.E9C     AIF   (&BS1).ERR7              MUTUALLY EXCLUSIVE OPERANDS     10300000
&BS1     SETB  1                                                        10350000
         AGO   .E9N                                                     10400000
.E9D     AIF   ('&TERMPUT(&A)' NE 'HOLD').E9E                           10450000
&B4      SETB  1                                                        10500000
         AGO   .E9F                                                     10550000
.E9E     AIF   ('&TERMPUT(&A)' NE 'NOHOLD').E9G                         10600000
.E9F     AIF   (&BS2).ERR7              MUTUALLY EXCLUSIVE OPERANDS     10650000
&BS2     SETB  1                                                        10700000
         AGO   .E9N                                                     10750000
.E9G     AIF   ('&TERMPUT(&A)' NE 'NOWAIT').E9H                         10800000
&B3      SETB  1                                                        10850000
         AGO   .E9I                                                     10900000
.E9H     AIF   ('&TERMPUT(&A)' NE 'WAIT').E9J                           10950000
.E9I     AIF   (&BS3).ERR7              MUTUALLY EXCLUSIVE OPERANDS     11000000
&BS3     SETB  1                                                        11050000
         AGO   .E9N                                                     11100000
.E9J     AIF   ('&TERMPUT(&A)' NE 'CONTROL').E9K                        11150000
&B6      SETB  1                                                        11200000
         AGO   .E9M                                                     11250000
.E9K     AIF   ('&TERMPUT(&A)' NE 'ASIS').E9L                           11300000
&B7      SETB  1                                                        11350000
         AGO   .E9M                                                     11400000
.E9L     AIF   ('&TERMPUT(&A)' NE 'EDIT').ERR7                          11450000
.E9M     AIF   (&BS4).ERR7              MUTUALLY EXCLUSIVE OPERANDS     11500000
&BS4     SETB  1                                                        11550000
.E9N     ANOP                                                           11600000
&A       SETA  &A-1                                                     11650000
         AIF   (&A NE 0).E9A                                            11700000
.E9O     ANOP                                                           11750000
         MVI   2(14),B'000&B3.&B4.&B5.&B6.&B7' SET TOUTPUT OPTION FIELD 11800000
&B5      SETB  0                                                        11850000
&B6      SETB  0                                                        11900000
&BS1     SETB  0                                                        11950000
&BS2     SETB  0                                                        12000000
.E10     ANOP                                                           12050000
&A       SETA  N'&TERMGET                                               12100000
         AIF   (&A EQ 0).E11            NO TERMGET OPERANDS             12150000
         AIF   ('&TERMGET' EQ '()').E10H     ALL OPERANDS OMITTED       12200000
         AIF   (&A GT 2).ERR8           TOO MANY OPERANDS               12250000
.E10A    AIF   (T'&TERMGET(&A) EQ 'O').E10G       OMITTED OPERAND       12300000
         AIF   ('&TERMGET(&A)' NE 'EDIT').E10B                          12350000
         AGO   .E10C                                                    12400000
.E10B    AIF   ('&TERMGET(&A)' NE 'ASIS').E10D                          12450000
&B6      SETB  1                                                        12500000
.E10C    AIF   (&BS1).ERR8              MUTUALLY EXCLUSIVE OPERANDS     12550000
&BS1     SETB  1                                                        12600000
         AGO   .E10G                                                    12650000
.E10D    AIF   ('&TERMGET(&A)' NE 'WAIT').E10E                          12700000
         AGO   .E10F                                                    12750000
.E10E    AIF   ('&TERMGET(&A)' NE 'NOWAIT').ERR8                        12800000
&B5      SETB  1                                                        12850000
.E10F    AIF   (&BS2).ERR8              MUTUALLY EXCLUSIVE OPERANDS     12900000
&BS2     SETB  1                                                        12950000
.E10G    ANOP                                                           13000000
&A       SETA  &A-1                                                     13050000
         AIF   (&A NE 0).E10A                                           13100000
.E10H    MVI   10(14),B'100&B5.000&B6'  SET TINPUT OPTIONS FIELD        13150000
.E11     AIF   (T'&ENTRY EQ 'O').E12      ENTRY POINT OMITTED           13200000
         AIF   ('&ENTRY' EQ '(15)').E11A     EP IN REG 15               13250000
         AIF   ('&ENTRY'(1,1) EQ '(').WARN4                             13300000
.E11A1   LA    15,&ENTRY      LOAD EP ADDR                              13350000
.E11A    BALR  14,15          BRANCH TO SERVICE ROUTINE                 13400000
         MEXIT                                                          13450000
.E12     L     15,16(0,0)          LOAD CVT POINTER                     13454002
         TM    464(15),B'10000000'   IS ROUTINE LOADED ?                13466002
         BNO   IKJ@&SYSNDX           NO- BRANCH TO LINK                 13470002
         L     15,464(0,15)          YES - BALR TO PUTGET               13474002
         BALR  14,15                                                    13478002
         B     IKJ$&SYSNDX                                              13482002
IKJ@&SYSNDX LINK  EP=IKJPTGT        LINK TO PUTGET                      13486002
IKJ$&SYSNDX DS    0H                                                    13490002
         MEXIT                                                          13550000
.********************************************************************** 13600000
.*                                                                    * 13650000
.*                                 LIST FORM                          * 13700000
.*                                                                    * 13750000
.********************************************************************** 13800000
.L1      DS    0F                                                       13850000
         AIF   (N'&OUTPUT EQ 0   AND N'&TERMPUT EQ 0).L2O               13900000
&A       SETA  N'&OUTPUT                                                13950000
         AIF   (&A EQ 0).L1L            NO OUTPUT OPERANDS              14000000
         AIF   ('&OUTPUT' EQ '()').L1I       ALL OPERANDS OMITTED       14050000
         AIF   (&A GT 3).ERR6           TOO MANY OPERANDS               14100000
         AIF   (&A EQ 1).L1I            OUTPUT ADDR ONLY                14150000
.L1A     AIF   (T'&OUTPUT(&A) EQ 'O').L1H         OMITTED OPERAND       14200000
         AIF   ('&OUTPUT(&A)' NE 'PTBYPS').L1B                          14250000
&B3      SETB  1                                                        14300000
&B5      SETB  1                                                        14350000
         AGO   .L1D                                                     14400000
.L1B     AIF   ('&OUTPUT(&A)' NE 'TERM').L1B0                           14450000
         AIF   (('&OUTPUT(2)' EQ 'MULTLVL' OR '&OUTPUT(3)' EQ          *14500000
               'MULTLVL') AND &A EQ 3).ERR2  TERM MUST BE SINGLE        14550000
         AGO   .L1B01                                                   14552000
.L1B0    AIF   ('&OUTPUT(&A)' NE 'ATTN').L1B1                           14560000
         AIF   (('&OUTPUT(2)' EQ 'MULTLVL' OR '&OUTPUT(3)' EQ          *14570000
               'MULTLVL') AND &A EQ 3).ERR2  ATTN MUST BE SINGLE        14580000
&B9      SETB  1                                                        14600000
.L1B01   ANOP                                                           14602000
&B10     SETB  1                                                        14610000
         AGO   .L1B2                                                    14650000
.L1B1    AIF   ('&OUTPUT(&A)' NE 'MODE').L1C                            14660000
         AIF   (('&OUTPUT(2)' EQ 'MULTLVL' OR '&OUTPUT(3)' EQ          *14670000
               'MULTLVL') AND &A EQ 3).ERR2  MODE MUST BE SINGLE        14680000
.L1B2    ANOP                                                           14682000
&B4      SETB  1                                                        14690000
         AGO   .L1D                                                     14692000
.L1C     AIF   ('&OUTPUT(&A)' NE 'PROMPT').L1E                          14700000
&B3      SETB  1                                                        14750000
&B10    SETB  1                                                         14760001
.L1D     AIF   (&BS1).ERR6              MUTUALLY EXCLUSIVE OPERANDS     14800000
&BS1     SETB  1                                                        14850000
         AGO   .L1H                                                     14900000
.L1E     AIF   ('&OUTPUT(&A)' NE 'MULTLVL').L1F                         14950000
         AIF   (('&OUTPUT(2)' EQ 'MODE' OR '&OUTPUT(3)' EQ 'MODE' OR   *15000000
               '&OUTPUT(2)' EQ 'ATTN' OR '&OUTPUT(3)' EQ 'ATTN')       *15010000
               AND &A EQ 3).ERR5        MULTLVL MUST BE PROMPT          15012000
         AIF   (('&OUTPUT(2)' EQ 'TERM' OR '&OUTPUT(3)' EQ 'TERM')     *15020000
               AND &A EQ 3).ERR5        MULTLVL MUST BE PROMPT          15050000
&B2      SETB  1                                                        15100000
         AGO   .L1G                                                     15150000
.L1F     AIF   ('&OUTPUT(&A)' NE 'SINGLE').ERR6                         15200000
&B1      SETB  1                                                        15250000
.L1G     AIF   (&BS2).ERR6              MUTUALLY EXCLUSIVE OPERANDS     15300000
&BS2     SETB  1                                                        15350000
.L1H     ANOP                                                           15400000
&A       SETA  &A-1                                                     15450000
         AIF   (&A NE 1).L1A                                            15500000
.L1I     AIF   (&BS1).L1J               SET DEFAULT VALUES              15550000
&B3      SETB  1                                                        15600000
.L1J     AIF   (&BS2).L1K               SET DEFAULT VALUES              15650000
&B1      SETB  1                                                        15700000
.L1K     ANOP                                                           15750000
&NAME    DC    B'000&B1.0&B2.0&B3'           SET OUTPUT CONTROL FIELD   15800000
         DC    B'&B4.00&B5.&B9.000'          SET OUTPUT CONTROL FIELD   15850000
         AGO   .L1M                                                     15900000
.L1L     ANOP                                                           15950000
&NAME    DC    X'0000'                       SET CONTROL FIELD          16000000
         AGO   .L2                                                      16050000
.L1M     ANOP                                                           16100000
&B4      SETB  0                                                        16150000
&B5      SETB  0                                                        16200000
&BS1     SETB  0                                                        16250000