         MACRO                                                          01000020
&NAME    QCOPY &TERMNME,&WRKAREA,&LIMIT=                         99226  02000010
.*             VERSION DATED MAY 1, 1972                         99226  02500010
.*C030000,480000-490000                                         SA51790 03000022
.*D060000-110000                                                SA51790 03500022
.*A045000,142000-146000,390000-450000                            99226  03600010
.*C020000-025000,040000,310000-360000                            99226  03700010
.*D190000-290000,370000,390000-470000                            99226  03800010
         AIF   ('&TERMNME' EQ '').ERR0                           99226  04000010
         AIF   ('&WRKAREA' EQ '').ERR0                           99226  04500010
&NAME    DS    0H                                                       05000020
         AIF   ('&TERMNME'(1,1) EQ '(' OR K'&TERMNME LT 9).OK           12000020
         MNOTE 12,'*** IHB002 INVALID TERMNAME OPERAND SPECIFIED'       13000020
         MEXIT                                                          14000020
.ERR0    ANOP                                                    99226  14200010
         MNOTE 12,'*** IHB004 REQUIRED OPERAND(S) NOT SPECIFIED' 99226  14400010
         MEXIT                                                   99226  14600010
.OK      ANOP                                                           15000020
         AIF   ('&WRKAREA'(1,1) EQ '(' OR K'&WRKAREA LT 9).OK1          16000020
         MNOTE 12,'*** IHB002 INVALID WORKAREA OPERAND SPECIFIED'       17000020
         MEXIT                                                          18000020
.OK1     ANOP                                                           30000020
         AIF   ('&TERMNME'(1,1) NE '(').TAD                      99226  31000010
         ST    &TERMNME(1),IEDQ&SYSNDX .ADDRESS OF TERMINAL NAME 99226  32000010
*                                       INTO PARAMETER LIST      99226  33000010
         AGO   .WRK                                              99226  34000010
.TAD     ANOP                                                    99226  35000010
         BAL   1,*+12 .                 ADDRESS OF TERMINAL NAME 99226  36000010
         DC    CL8'&TERMNME' .          TERMINAL NAME                   38000020
         ST    1,IEDQ&SYSNDX .          ADDRESS OF TERMINAL NAME 99226  39000010
*                                       INTO PARAMETER LIST      99226  39200010
.WRK     ANOP                                                    99226  39400010
         AIF   ('&WRKAREA'(1,1) NE '(').LIM                      99226  39600010
         ST    &WRKAREA(1),IEDQ&SYSNDX+4  ADDRESS OF WORKAREA    99226  39800010
*                                       INTO PARAMETER LIST      99226  40000010
.LIM     ANOP                                                    99226  40200010
         AIF   ('&LIMIT' EQ '').LIST                             99226  40400010
         AIF   ('&LIMIT'(1,1) EQ '(').OK2A                       99226  40600010
         AIF   ('&LIMIT' GE '1' OR '&LIMIT' LE '4095').OK2       99226  40800010
         MNOTE 12,'*** IHB002 INVALID LIMIT OPERAND SPECIFIED'   99226  41000010
         MEXIT                                                   99226  41200010
.OK2     ANOP                                                    99226  41400010
         LA    0,&LIMIT .                                        99226  41600010
         ST    0,IEDQ&SYSNDX+8 .                                 99226  41800010
         AGO   .LIST                                             99226  42000010
.OK2A    ANOP                                                    99226  42200010
         LR    0,&LIMIT(1) .                                     99226  42400010
         ST    0,IEDQ&SYSNDX+8 .                                 99226  42600010
.LIST    ANOP                                                    99226  42800010
         CNOP  0,4                                               99226  43000010
         BAL   1,*+16 .                 ADDR OF PARAMETER LIST   99226  43200010
IEDQ&SYSNDX DS 0F .                                              99226  43400010
         DC    A(0) .                   ADDRESS OF TERMINAL NAME 99226  43600010
         AIF   ('&WRKAREA'(1,1) NE '(').OK3                      99226  43800010
         DC    A(0) .                   ADDRESS OF WORKAREA      99226  44000010
         AGO   .OK4                                              99226  44200010
.OK3     ANOP                                                    99226  44400010
         DC    A(&WRKAREA) .            ADDRESS OF WORKAREA      99226  44600010
.OK4     ANOP                                                    99226  44800010
         DC    A(0) .                   AMOUNT OF LIMIT          99226  45000010
         LINK  EP=IEDQE2                                        SA51790 48000022
         MEND                                                           50000020
