         MACRO                                                          02000010
&NAME    QRESET  &DCB,&MAX=                                             04000010
         LCLA  &N                                                       06000010
         LCLB  &NOGO                                                    08000010
         LCLC  &R                                                       10000010
         AIF   ('&MAX' NE '').QR1                                       12000010
         MNOTE 12,'*** IHB001 MAX OPERAND REQUIRED - NOT SPECIFIED'     14000010
&NOGO    SETB  1                                                        16000010
         AGO   .QR1A                                                    18000010
.QR1     AIF   ('&MAX' LT '1' OR '&MAX' GT '9999').ERR2                 20000010
         AGO   .QR1A                                                    22000010
.ERR2    MNOTE 12,'***  IHB300 MAX OPERAND INVALID AS SPECIFIED  '      24000010
&NOGO    SETB  1                                                        26000010
.QR1A    AIF   ('&DCB' NE '').QR2                                       28000010
         MNOTE 12,'*** IHB001 DCBNAME OPERAND REQUIRED - NOT SPECIFIED' 30000010
&NOGO    SETB  1                                                        32000010
.QR2     AIF   ('&DCB'(1,1) LE 'Z').QR3                                 34000010
         MNOTE 12,'*** IHB300 DCBNAME OPERAND INVALID AS SPECIFIED '    34500010
&NOGO    SETB  1                                                        35000010
.QR3     AIF   (&NOGO).EXIT                                             35500010
         AIF   ('&DCB'(1,1) EQ '(').REG                                 36000010
         CNOP  0,4                                                      38000010
&NAME    BAL   1,*+12                                                   40000010
         DC    AL4(&DCB)                                                42000010
         DC    AL4(&MAX)                                                44000010
         AGO   .BAL                                                     46000010
.REG     ANOP                                                           48000010
&N       SETA  K'&DCB                                                   50000010
&N       SETA  &N-2                                                     52000010
&R       SETC  '&DCB'(2,&N)                                             54000010
         CNOP  0,4                                                      56000010
&NAME    BAL   1,*+12                                                   58000010
         DC    AL4(0)                                                   60000010
         DC    AL4(&MAX)                                                62000010
         ST    &R,*-8                                                   64000010
.BAL     ANOP                                                           66000010
         L     15,=V(IEDQGR)                                            68000010
         BALR  14,15                                                    70000010
.EXIT    MEND                                                           72000010
