         MACRO                                                          00020000
&NAME    RDJFCB &PARA,&MF=I                                             00040000
         GBLB  &IHBRDJ                                                  00060000
&IHBRDJ  SETB  1                                                        00100000
         AIF   (N'&SYSLIST LE 1).OPEN   IF ONLY 1 (PARMLIST)     A45585 00110021
         IHBERMAC 238                   EXCESSIVE POS. PARMS     A45585 00120021
.OPEN    ANOP                                                    A45585 00130021
&NAME    OPEN  &PARA,MF=&MF                                             00140000
&IHBRDJ  SETB  0                                                        00160000
         AIF   ('&MF' EQ 'L').END                                       00180000
         SVC   64                                ISSUE RDJFCB SVC       00200000
.END     MEND                                                           00220000
