         MACRO                                                          03000020
&NAME    READY &GMMSG=0,&RSMSG=0,&PURGEXT=0,&PRIEXIT=0,         X30X5MTC06000010
               &OPENCHK=CHKPT                                   X30X5MT 07000010
         GBLB  &IEDQZA(64)                                              09000020
.********************** MICROFICHE FLAGS ****************************** 09000110
.*C060000                                                       X30X5MT 09000210
.*A210000,330000,930000                                         X30X5MT 09000310
.********************************************************************** 09000410
         AIF   (&IEDQZA(7) EQ 0).ERR3                                   12000020
         AIF   (&IEDQZA(50) EQ 1).ERR4                                  15000020
         AIF   ('&GMMSG' EQ '').ERR1                                    18000020
         AIF   ('&RSMSG' EQ '').ERR2                                    21000020
         AIF   ('&PURGEXT' EQ '').ERR5                          X30X5MT 21600010
         AIF   ('&PRIEXIT' EQ '').ERR6                          X30X5MT 22200010
         AIF   ('&OPENCHK' NE 'IDLE' AND '&OPENCHK' NE 'OPEN' AND '&OPE*22800010
               NCHK' NE 'CHKPT').ERR7                           X30X5MT 23400010
&IEDQZA(50) SETB 1                                                      24000020
&NAME    B     IEDQRDY .                BRANCH AROUND ADCONS            27000020
IEDQRDYA DC    A(&GMMSG) .              GOOD MORNING MESSAGE ROUTINE    30000020
         DC    A(&RSMSG) .              RESTART-IN-PROGRESS MSG RTN     33000020
         AIF   ('&PURGEXT' EQ '0').ADCN                         X30X5MT 33100010
         DC    V(&PURGEXT) .            PURGE EXIT ROUTINE      X30X5MT 33200010
         AGO   .SETPRI                                          X30X5MT 33300010
.ADCN    DC    A(0)                                             X30X5MT 33400010
.SETPRI  ANOP                                                   X30X5MT 33500010
         AIF   ('&PRIEXIT' EQ '0').PADCN                        X30X5MT 33600010
         DC    V(&PRIEXIT) .            PIRORITY EXIT ROUTINE   X30X5MT 33700010
         AGO   .SETFG                                           X30X5MT 33800010
.PADCN   DC    A(0)                                             X30X5MT 33900010
.SETFG   ANOP                                                   X30X5MT 34000010
         AIF   ('&OPENCHK' EQ 'IDLE' OR '&OPENCHK' EQ 'CHKPT').TEST2    34100010
         DC    XL1'80',XL3'00' .       FLAG FOR OPENCHK=OPEN    X30X5MT 34200010
         AGO   .ENDFG                                           X30X5MT 34300010
.TEST2   ANOP                                                   X30X5MT 34400010
         AIF   ('&OPENCHK' EQ 'CHKPT').IDLFG                    X30X5MT 34500010
         DC    XL1'40',XL3'00' .        FLAG FOR OPENCHK=IDLE   X30X5MT 34600010
         AGO   .ENDFG                                           X30X5MT 34700010
.IDLFG   DC    XL4'00' .               NO FLAG FOR OPENCHK=CHKPTX30X5MT 34800010
.ENDFG   ANOP                                                   X30X5MT 34900010
IEDQRDY  EQU   *                                                        36000020
         AIF   (NOT &IEDQZA(51)).NOTSO                              TSO 39000020
         L     2,IEDTSOPT .             ADDRESS OF TSO WORK AREA        42000020
         L     2,12(2) .                GET ADDRESS OF STAE EXIT        45000020
*        STAE  (2),PURGE=HALT                                           47000020
         STAE  (2),PURGE=HALT                                           49000020
.NOTSO   ANOP                                                       TSO 51000020
*        LINK  EP=IEDQND                INVOKE CKPT ATTACHER            52000020
         LINK  EP=IEDQND .              INVOKE CKPT ATTACHER            54000020
         LA    1,IEDSAVE2 .             ADDRESS OF DISP SAVEAREA        57000020
         L     15,IEDEA .               TAM DISPATCHER ENTRY POINT      60000020
         OI    IEDBIT1,IEDREADN .       SET 'READY DONE' FLAG IN AVT    63000020
         BALR  14,15 .                  CALL TAM DISPATCHER             66000020
IEDREADN EQU   X'08' .                  READY MACRO HAS BEEN EXECUTED   69000020
         MEXIT                                                          72000020
.ERR1    MNOTE 12,'***IHB002 INVALID GMMSG OPERAND SPECIFIED-   '       75000020
         MEXIT                                                          78000020
.ERR2    MNOTE 12,'***IHB002 INVALID RSMSG OPERAND SPECIFIED-   '       81000020
         MEXIT                                                          84000020
.ERR3    MNOTE 12,'***IHB305 INTRO MACRO NOT SPECIFIED'                 87000020
         MEXIT                                                          90000020
.ERR4    MNOTE 12,'***IHB067 READY MACRO PREVIOUSLY USED '              93000020
         MEXIT                                                  X30X5MT 93300010
.ERR5    MNOTE 12,'*** IHB002 INVALID PURGEXT OPERAND SPECIFIED-   '    93600010
         MEXIT                                                  X30X5MT 93900010
.ERR6    MNOTE 12,'*** IHB002 INVALID PRIEXIT OPERAND SPECIFIED-   '    94200010
         MEXIT                                                  X30X5MT 94500010
.ERR7    MNOTE 12,'***IHB002 INVALID OPENCHK OPERAND SPECIFIED-&OPENCHKC94800010
               '                                                X30X5MT 95100010
         MEND                                                           96000020
