         MACRO                                                          03000000
&NAME    RELBUF  &DCB,&BUFFER                                           06000000
&NAME    DS    0H                                                       09000000
         AIF   (T'&DCB(1) EQ 'N').REG                                   12000000
         AIF   (T'&DCB(1) EQ 'U').REG2                                  15000000
.SYM     LA    1,&DCB                                                   18000000
         AGO   .W                                                       21000000
.REG2    AIF   ('&DCB'(1,1) NE '(').SYM                                 24000000
         AIF   ('&DCB'(K'&DCB,1) NE ')').ER                             27000000
         AGO   .LDRG                                                    30000000
.REG     AIF   (&DCB(1) EQ 1).W                                         33000000
         AIF   (&DCB(1) GT 12).ER                                       36000000
.LDRG    ANOP                                                           39000000
         LR    1,&DCB(1)                                                42000000
.W       AIF   (T'&BUFFER(1) NE 'N' AND T'&BUFFER(1) NE 'U').ER2        45000000
         LA    0,0(&BUFFER(1))                                          48000000
.W2      SVC   58                                                       51000000
         SRL   15,24                                                    54000000
         AGO   .END                                                     57000000
.ER      MNOTE 12,'***  IHB078  DCB OPERAND REGISTER NOTATION INVALID-&X60000000
               DCB'                                                     63000000
         MEXIT                                                          66000000
.ER2     MNOTE 12,'***  IHB078  BUFFER OPERAND REGISTER NOTATION INVALIX69000000
               D-&BUFFER'                                               72000000
.END     MEND                                                           75000000
