         MACRO                                                          00020000
&NAME    RELEX &TYPE,&DCB,&BLKREF                                       00040000
.*   BDAM - &BLKREF, ISAM - &DECB                                       00050017
         AIF   ('&DCB' EQ '').ERR1                                      00060000
         AIF   ('&TYPE' EQ 'K').ISAM                                    00070017
         AIF   ('&BLKREF' EQ '').ERR2                                   00080000
         AIF   ('&TYPE' EQ 'D' OR T'&TYPE EQ 'O').GO                    00084017
         AGO   .ERR4                                                    00088017
.ISAM    AIF   ('&BLKREF' EQ '').ERR3                                   00092017
.GO      ANOP                                                           00096017
&NAME    IHBINNRA &DCB,&BLKREF                                          00100000
         SVC   53                                ISSUE RELEX SVC        00160000
         MEXIT                                                          00180000
.ERR1    IHBERMAC 6                                                     00200000
         MEXIT                                                          00220000
.ERR2    IHBERMAC 12                                                    00240000
         MEXIT                                                          00260000
.ERR3    IHBERMAC 7                                                     00266017
         MEXIT                                                          00272017
.ERR4    IHBERMAC 48,,&TYPE                                             00280000
         MEND                                                           00300000
