         MACRO                                                          00050002
&NAME    RESERVE &PARAM,&SMC=,&RET=,&UCB=,&ECB=,&MF=I,&RELATED=         00100002
         GBLB  &IHBRES                                                  00150002
&IHBRES  SETB  1                                                        00200002
         AIF   ('&MF(1)' EQ 'E').RES000                                 00250002
         AIF   ('&UCB' NE '').RES000                                    00300002
         IHBERMAC 157,UCB,&UCB                                          00350002
.RES000  ANOP                                                           00400002
         AIF   ('&ECB' NE '').RES00A         *                          00450002
         AIF   ('&SMC' EQ '' AND '&RET' EQ '' AND '&UCB' EQ '').RES010  00500002
         AIF   ('&SMC' EQ '' AND '&RET' EQ '').RES020                   00550002
         AIF   ('&RET' EQ '' AND '&UCB' EQ '').RES030                   00600002
         AIF   ('&SMC' EQ '' AND '&UCB' EQ '').RES040                   00650002
         AIF   ('&UCB' EQ '').RES050                                    00700002
         AIF   ('&SMC' EQ '').RES060                                    00750002
         AIF   ('&RET' EQ '').RES070                                    00800002
&NAME    ENQ   &PARAM,SMC=&SMC,RET=&RET,UCB=&UCB,MF=&MF                 00850002
         AGO   .RES080                                                  00900002
.RES010  ANOP                                                           00950002
&NAME    ENQ   &PARAM,MF=&MF                                            01000002
         AGO   .RES080                                                  01050002
.RES020  ANOP                                                           01100002
&NAME    ENQ   &PARAM,UCB=&UCB,MF=&MF                                   01150002
         AGO   .RES080                                                  01200002
.RES030  ANOP                                                           01250002
&NAME    ENQ   &PARAM,SMC=&SMC,MF=&MF                                   01300002
         AGO   .RES080                                                  01350002
.RES040  ANOP                                                           01400002
&NAME    ENQ   &PARAM,RET=&RET,MF=&MF                                   01450002
         AGO   .RES080                                                  01500002
.RES050  ANOP                                                           01550002
&NAME    ENQ   &PARAM,SMC=&SMC,RET=&RET,MF=&MF                          01600002
         AGO   .RES080                                                  01650002
.RES060  ANOP                                                           01700002
&NAME    ENQ   &PARAM,RET=&RET,UCB=&UCB,MF=&MF                          01750002
       AGO     .RES080                                                  01800002
.RES070  ANOP                                                           01850002
&NAME    ENQ   &PARAM,SMC=&SMC,UCB=&UCB,MF=&MF                          01900002
         AGO   .RES080                                                  01950002
.RES00A  AIF   ('&SMC' EQ '' AND '&RET' EQ '' AND '&UCB' EQ '').RES01A  02000002
         AIF   ('&SMC' EQ '' AND '&RET' EQ '').RES02A                   02050002
         AIF   ('&RET' EQ '' AND '&UCB' EQ '').RES03A                   02100002
         AIF   ('&SMC' EQ '' AND '&UCB' EQ '').RES04A                   02150002
         AIF   ('&UCB' EQ '').RES05A                                    02200002
         AIF   ('&SMC' EQ '').RES06A                                    02250002
         AIF   ('&RET' EQ '').RES07A                                    02300002
&NAME    ENQ   &PARAM,SMC=&SMC,RET=&RET,UCB=&UCB,MF=&MF                 02350002
         AGO   .RES080                                                  02400002
.RES01A  ANOP                                                           02450002
&NAME    ENQ   &PARAM,ECB=&ECB,MF=&MF                                   02500002
         AGO   .RES080                                                  02550002
.RES02A  ANOP                                                           02600002
&NAME    ENQ   &PARAM,UCB=&UCB,ECB=&ECB,MF=&MF                          02650002
         AGO   .RES080                                                  02700002
.RES03A  ANOP                                                           02750002
&NAME    ENQ   &PARAM,SMC=&SMC,ECB=&ECB,MF=&MF                          02800002
         AGO   .RES080                                                  02850002
.RES04A  ANOP                                                           02900002
&NAME    ENQ   &PARAM,RET=&RET,ECB=&ECB,MF=&MF                          02950002
         AGO   .RES080                                                  03000002
.RES05A  ANOP                                                           03050002
&NAME    ENQ   &PARAM,SMC=&SMC,RET=&RET,ECB=&ECB,MF=&MF                 03100002
         AGO   .RES080                                                  03150002
.RES06A  ANOP                                                           03200002
&NAME    ENQ   &PARAM,RET=&RET,UCB=&UCB,ECB=&ECB,MF=&MF                 03250002
       AGO     .RES080                                                  03300002
.RES07A  ANOP                                                           03350002
&NAME    ENQ   &PARAM,SMC=&SMC,UCB=&UCB,ECB=&ECB,MF=&MF                 03400002
.RES080  AIF   (NOT(&IHBRES)).RES090                                    03450002
&IHBRES  SETB  0                                                        03500002
         SVC   56                                                       03550002
.RES090  MEND                                                           03600002
