         MACRO                                                          03000010
&NAME    RETRY &INTVL= .                                                06000010
         GBLA  &IEDQZE(64) .                                            09000010
         GBLB  &IEDQZA(64) .                                            12000010
         LCLB  &NOGO .                                                  15000010
.*             VERSION DATED OCTOBER 26, 1971                           18000010
         SPACE 2 .                                                      21000010
         AIF   (&IEDQZA(1) AND &IEDQZA(5)).CHK .                        24000010
         MNOTE 12,'*** IHB070 SEQUENCE ERROR- MUST FOLLOW INMSG MACRO'  27000010
&NOGO    SETB  1 .                                                      30000010
.CHK     ANOP .                                                         33000010
         AIF   ('&INTVL' NE '').INTOK .                                 36000010
         MNOTE 12,'*** IHB004 REQUIRED OPERAND(S) NOT SPECIFIED'        39000010
&NOGO    SETB  1 .                                                      42000010
.INTOK   ANOP .                                                         45000010
         AIF   ('&INTVL'(1,1) LT '1' OR '&INTVL'(1,1) GT '9').INTERR    48000010
         AIF   ('&INTVL' LT '1' OR '&INTVL' GT '65535').INTERR .        51000010
         IEDQMASK &INTVL,2 .                                            54000010
         AIF   (NOT &IEDQZA(24)).AND .                                  57000010
.INTERR  ANOP .                                                         60000010
         MNOTE 12,'*** IHB300 INTERVAL OPERAND INVALID AS SPECIFIED'    63000010
&NOGO    SETB  1 .                                                      66000010
.AND     ANOP .                                                         69000010
         AIF   (&NOGO).MEND .                                           72000010
&IEDQZA(18)  SETB  1 .                                                  75000010
         IEDQVCON 52,IEDQA9 .                                           78000010
&NAME    DC    AL1(&IEDQZE(52)+1),AL1(4) .                              81000010
         DC    AL2(&INTVL) .            INTERVAL VALUE                  84000010
.MEND    ANOP .                                                         87000010
         SPACE 2 .                                                      90000010
         MEND                                                           93000010
