         MACRO                                                          00050002
&NAME    RISGNL &FUNCTON,&CPU=,&EP=,&PARM=                              00100002
         GBLC  &MESSAGE                                                 00150002
         GBLC  &TYPE                                                    00200002
         AIF   ('&FUNCTON' NE '').PARLEL                                00250002
         IHBERMAC 24                                                    00300002
         MEXIT                                                          00350002
.PARLEL  AIF   ('&FUNCTON' NE 'PARALLEL').SERIAL                        00400002
&NAME    LA    0,128(0,0)              LOADS X'80', PARALLEL INDICATOR  00450002
         SLL   0,24(0)                 AND SHIFTS INTO HIGH ORDER BYTE  00500002
         AGO   .PCCAADR                                                 00550002
.SERIAL  AIF   ('&FUNCTON' NE 'SERIAL').ERR1                            00600002
&NAME    LA    0,64(0,0)               LOADS X'40', SERIAL INDICATOR    00650002
         SLL   0,24(0)                 AND SHIFTS INTO HIGH ORDER BYTE  00700002
         AGO   .PCCAADR                                                 00750002
.ERR1    ANOP                                                           00800002
         IHBERMAC 1001,FUNCTION,&FUNCTON                                00850002
         MEXIT                                                          00900002
.PCCAADR AIF   ('&CPU' EQ '(1)').EPADDR1                                00950002
         AIF   ('&CPU' NE '').EPADDR                                    01000002
         IHBERMAC 1006,CPU                                              01050002
         MEXIT                                                          01100002
.EPADDR  ANOP                                                           01150002
         AIF   ('&CPU'(1,1) EQ '(').ERREG1                              01200002
         LA    1,&CPU                  PHYSICAL CCA ADDRESS             01250002
.EPADDR1 ANOP                                                           01300002
         AIF   ('&EP' EQ '(12)').PARMAD1                                01350002
         AIF   ('&EP' NE '').PARMADR                                    01400002
         IHBERMAC 1006,EP                                               01450002
         MEXIT                                                          01500002
.PARMADR ANOP                                                           01550002
         AIF   ('&EP'(1,1) EQ '(').ERREG2                               01600002
         LA    12,&EP                  RECEIVING RTNS ENTRY POINT       01650002
.PARMAD1 ANOP                                                           01700002
         AIF   ('&PARM' EQ '(11)').MNLCDE                               01750002
         AIF   ('&PARM' NE '').LACDE                                    01800002
         LA    11,0(0,0)                                                01850002
         AGO   .MNLCDE                                                  01900002
.ERREG1  ANOP                                                           01950002
&TYPE    SETC  'CPU'                                                    02000002
         AGO   .ERREG                                                   02050002
.ERREG2  ANOP                                                           02100002
&TYPE    SETC  'EP'                                                     02150002
         AGO   .ERREG                                                   02200002
.ERREG3  ANOP                                                           02250002
&TYPE    SETC  'PARM'                                                   02300002
.ERREG   ANOP                                                           02350002
.*       IHB280 REGISTER NOTATION INVALID WITH XXX                      02400002
&MESSAGE SETC  'REGISTER NOTATION'                                      02450002
         IHBERMAC 1020,&MESSAGE,&TYPE                                   02500002
         MEXIT                                                          02550002
.LACDE   ANOP                                                           02600002
         AIF   ('&PARM'(1,1) EQ '(').ERREG3                             02650002
         L     11,&PARM       PARAMETER                                 02700002
.MNLCDE  ANOP                                                           02750002
         L     14,CVTPTR(0,0)          CVT ADDRESS                      02800002
         L     15,CVTIPCRI-CVT(0,14)   IEAVERI ENTRY POINT ADDRESS      02850002
         BALR  14,15                                                    02900002
         MEND                                                           03400002
