         MACRO                                                          00050001
&NAME    RPL   &ACBDATA=,&AREA=0,&ARG=0,&NXTRPL=0,&KEYLEN=0,&ECB=,     C00100001
               &BUFL=,&LEN=,&MSGLEN=0,&ERRMSG=,                        C00150001
               &CCHAR=0,&OPTCD=,&NIB=,&BRANCH=,                        C00250040
               &ACB=,&AREALEN=,&MSGAREA=,&RECLEN=,                     C00300040
               &AM=,&AAREA=0,&AAREALN=0,&EXIT=,&ARECLEN=0,             C00350040
               &SEQNO=0,&USENSEO=0,&IBSQVAL=0,&OBSQVAL=0,              C00400040
               &POST=,&RESPOND=,&CHAIN=,&CONTROL=,&CHNGDIR=,           C00450040
               &BRACKET=,&SSENSMO=0,&TRANSID=0,                        C00500040
               &SSENSEO=,&RTYPE=,&STYPE=,&IBSQAC=,&OBSQAC=,            C00550040
               &SIGDATA=0,&CODESEL=,                                   C00600040
               &CRYPT=,                                                C00650040
               &PARMS=,&PARM2=,&PARM3=                                  00700040
.*                                                                      00750040
.*             CHANGE LEVEL = 0                                @ZA34940 00800040
.*             DATE OF LAST CHANGE =  3  OCT   78 ( 78*276 )   @ZA34940 00850040
.*                                                                      00900040
.* FUNCTION-   THIS MACRO CONTAINS THE PROTOTYPE STATEMENT              00950040
.*             FOR THE RPL MACRO.                                       01000040
.*             THE FUNCTION OF THIS MACRO IS TO DETERMINE IF            01050040
.*             THE PROGRAM ISSUING THE RPL MACRO IS A                   01100040
.*             VSAM USER OR A VTAM USER AND INVOKE MACRO                01150040
.*             RPLVS FOR VSAM OR ISTRPL1 FOR VTAM.                      01200040
.*                                                                      01250040
.* CHANGE ACTIVITY                                                      01300040
.*      CBMM SPLIT SUPPORT                                     @ZA34940 01350040
.*                                                                      01400040
         AIF   (N'&SYSLIST EQ 0).PASS   ANY POSITIONAL PARM?   @ZA39925 01410000
         IDAVSERR 1                     YES, ISSUE MESSAGE     @ZA39925 01420000
.PASS    ANOP                           NO, CONTINUE           @ZA39925 01430000
         AIF   ('&AM' EQ 'VTAM').VTRPL  IS IT VTAM                      01450040
         AIF   ('&AM' EQ 'VSAM').VSRPL  IS IT VSAM                      01500040
         AIF   ('&AM' EQ '').VSRPL      IF NULL, DEFAULT VSAM           01550040
.*                                                                      01600040
         IDAVSERR  3,AM,&AM             ISSUE ERROR MSG                 01650040
         MEXIT                                                          01700040
.*                                                                      01750040
.VTRPL   ANOP                                                           01800040
&NAME    ISTRPL1 ACBDATA=&ACBDATA,AREA=&AREA,ARG=&ARG,                 C01850040
               NXTRPL=&NXTRPL,KEYLEN=&KEYLEN,ECB=&ECB,                 C01900040
               BUFL=&BUFL,LEN=&LEN,MSGLEN=&MSGLEN,                     C01950040
               ERRMSG=&ERRMSG,CCHAR=&CCHAR,OPTCD=&OPTCD,               C02000040
               NIB=&NIB,BRANCH=&BRANCH,ACB=&ACB,                       C02050040
               AREALEN=&AREALEN,MSGAREA=&MSGAREA,                      C02100040
               RECLEN=&RECLEN,AM=&AM,AAREA=&AAREA,                     C02150040
               AAREALN=&AAREALN,EXIT=&EXIT,ARECLEN=&ARECLEN,           C02200040
               SEQNO=&SEQNO,USENSEO=&USENSEO,                          C02250040
               IBSQVAL=&IBSQVAL,OBSQVAL=&OBSQVAL,                      C02300040
               POST=&POST,RESPOND=&RESPOND,CHAIN=&CHAIN,               C02350040
               CONTROL=&CONTROL,CHNGDIR=&CHNGDIR,                      C02400040
               BRACKET=&BRACKET,SSENSMO=&SSENSMO,                      C02450040
               TRANSID=&TRANSID,SSENSEO=&SSENSEO,                      C02500040
               RTYPE=&RTYPE,STYPE=&STYPE,IBSQAC=&IBSQAC,               C02550040
               OBSQAC=&OBSQAC,SIGDATA=&SIGDATA,                        C02600040
               CODESEL=&CODESEL,CRYPT=&CRYPT,                          C02650040
               PARMS=&PARMS,PARM2=&PARM2,PARM3=&PARM3                   02700040
.*                                                                      02750040
         MEXIT                                                          02800040
.*                                                                      02850040
.*                                                                      02900040
.VSRPL   ANOP                                                           02950040
&NAME    RPLVS ACBDATA=&ACBDATA,AREA=&AREA,ARG=&ARG,                   C03000040
               NXTRPL=&NXTRPL,KEYLEN=&KEYLEN,ECB=&ECB,                 C03050040
               BUFL=&BUFL,LEN=&LEN,MSGLEN=&MSGLEN,                     C03100040
               ERRMSG=&ERRMSG,CCHAR=&CCHAR,OPTCD=&OPTCD,               C03150040
               NIB=&NIB,BRANCH=&BRANCH,ACB=&ACB,                       C03200040
               AREALEN=&AREALEN,MSGAREA=&MSGAREA,                      C03250040
               RECLEN=&RECLEN,AM=&AM,AAREA=&AAREA,                     C03300040
               AAREALN=&AAREALN,EXIT=&EXIT,ARECLEN=&ARECLEN,           C03350040
               SEQNO=&SEQNO,USENSEO=&USENSEO,                          C03400040
               IBSQVAL=&IBSQVAL,OBSQVAL=&OBSQVAL,                      C03450040
               POST=&POST,RESPOND=&RESPOND,CHAIN=&CHAIN,               C03500040
               CONTROL=&CONTROL,CHNGDIR=&CHNGDIR,                      C03550040
               BRACKET=&BRACKET,SSENSMO=&SSENSMO,                      C03600040
               TRANSID=&TRANSID,SSENSEO=&SSENSEO,                      C03650040
               RTYPE=&RTYPE,STYPE=&STYPE,IBSQAC=&IBSQAC,               C03700040
               OBSQAC=&OBSQAC,SIGDATA=&SIGDATA,                        C03750040
               CODESEL=&CODESEL,CRYPT=&CRYPT,                          C03800040
               PARMS=&PARMS,PARM2=&PARM2,PARM3=&PARM3                   03850040
.*                                                                      03900040
         MEND                                                           03950040
