         MACRO                                                          00050040
&NAME    RPLVS &ACBDATA=,&AREA=0,&ARG=0,&NXTRPL=0,&KEYLEN=0,   @ZA34940C00100040
               &ECB=,&BUFL=,&LEN=,&MSGLEN=0,&ERRMSG=,          @ZA34940C00130040
               &CCHAR=0,&OPTCD=,&NIB=,&BRANCH=,                  X03004C00200040
               &ACB=,&AREALEN=,&MSGAREA=,&RECLEN=,               X03004C00250040
               &AM=,&AAREA=0,&AAREALN=0,&EXIT=,&ARECLEN=0,       X03004C00300040
               &SEQNO=0,&USENSEO=0,&IBSQVAL=0,&OBSQVAL=0,       X3004BHC00350040
               &POST=,&RESPOND=,&CHAIN=,&CONTROL=,&CHNGDIR=,    X3004BHC00400040
               &BRACKET=,&SSENSMO=0,&TRANSID=0,                X03004JSC00450040
               &SSENSEO=,&RTYPE=,&STYPE=,&IBSQAC=,&OBSQAC=,     X04SVHSC00500040
               &SIGDATA=0,&CODESEL=,                           @Z40BHUCC00550040
               &CRYPT=,                                        @ZA34940C00600040
               &PARMS=,&PARM2=,&PARM3=                         @ZA34940 00620040
.*                                                                      00640040
.*             CHANGE LEVEL = 0                                @ZA34940 00660040
.*             DATE OF LAST CHANGE = 4  OCT   78 ( 78*277 )    @ZA34940 00680040
.*                                                                      00700040
.* FUNCTION-   THE FUNCTION OF THIS MACRO IS TO BUILD,         @ZA34940 00720040
.*             AT ASSEMBLY TIME, AN RPL (REQUEST PARAMETER     @ZA34940 00740040
.*             LIST) FOR A VSAM USER.                          @ZA34940 00760040
.*             RPLVS IS INVOKED BY MACRO RPL WHEN A USER       @ZA34940 00780040
.*             ISSUES AN RPL MACRO WITH NO 'AM' SPECIFIED      @ZA34940 00800040
.*             OR 'AM=VSAM' SPECIFIED.                         @ZA34940 00820040
.*                                                             @ZA34940 00840040
.* CHANGE ACTIVITY                                             @ZA34940 00860040
.*      CBMM SPLIT SUPPORT                                     @ZA34940 00880040
.*                                                             @ZA34940 00900040
.*             THE FOLLOWING GLOBALS ARE SET IN IDAVSOPT WITH  @ZA34940 00920040
.*             THE VALUES OF THE VARIOUS OPTCD BYTES           @ZA34940 00940040
         GBLC  &IDAOP1,&IDAOP2,&IDAOP5,&IDAOP6,&IDAOP7,&IDAOP8  X04SVHS 01000040
         GBLC  &IDAOP9,&IDAOPA,&IDAOPB,&IDAOPC  OPTCD CODES     X04SVHS 01050040
         GBLC  &IDABRCH                 BRANCH CODE             X04SVHS 01100040
         GBLC  &IDASNSO                 SSENSEO CODES           X04SVHS 01150040
         GBLC  &IDACRYP                 ENCRIPTION CODE        @G40AKCM 01200040
         GBLC  &IDARH3                 CHNGDIR/BRACKET/CODESEL @Z40BHUC 01250040
         GBLC  &IDASRTY                 STYPE, RTYPE CODES      X04SVHS 01300040
         GBLC  &IDACHN                  CHAIN CODES             X04SVHS 01350040
         GBLC  &IDAPORE                 POST RESPOND CODES      X04SVHS 01400040
         GBLC  &IDACON1,&IDACON2,&IDACON3 CONTROL CODES         X04SVHS 01450040
         GBLC  &IDAOBQC                 OBSQAC CODES            X04SVHS 01500040
         GBLC  &IDAIBQC                 IBSQAC CODES            X04SVHS 01550040
         GBLA  &IDAENO                  NUMBER OF ELEMENTS     @ZA06420 01600040
.* LOCALS                                                               01650040
         LCLA  &LENG                    SUBPARAMETER RPL LENGTH  X03004 01700040
         LCLA  &SUBTYPE                 SUBTYPE CODE            X04SVHS 01750040
         LCLB  &ECBX                                            X04SVHS 01800040
         LCLB  &EXITB,&NOEXIT,&NIBD                             X04SVHS 01850040
.*             INITIALIZE GLOBAL VARIABLES                              01900040
&IDAOP1  SETC  '0000000'                                        X04SVHS 01950040
&IDAOP2  SETC  '00000000'                                       X04SVHS 02000040
&IDAOP5  SETC  '00000000'                                       X04SVHS 02050040
&IDAOP6  SETC  '00000000'                                       X04SVHS 02100040
&IDAOP7  SETC  '00000000'                                       X04SVHS 02150040
&IDAOP8  SETC  '00000000'                                       X04SVHS 02200040
&IDAOP9  SETC  '00000000'                                       X04SVHS 02250040
&IDAOPA  SETC  '00000000'                                       X04SVHS 02300040
&IDAOPB  SETC  '00000000'                                       X04SVHS 02350040
&IDAOPC  SETC  '00000000'                                       X04SVHS 02400040
&IDABRCH SETC  '0'                                              X04SVHS 02450040
&IDASNSO SETC  '00000000'                                       X04SVHS 02500040
&IDARH3  SETC  '00000000'                                       X04SVHS 02550040
&IDASRTY SETC  '00000000'                                       X04SVHS 02600040
&IDACRYP SETC  '0'                                             @G40AKCM 02650040
&IDACHN  SETC  '00000000'                                       X04SVHS 02700040
&IDAPORE SETC  '00000000'                                       X04SVHS 02750040
&IDACON1 SETC  '00000000'                                       X04SVHS 02800040
&IDACON2 SETC  '00000000'                                       X04SVHS 02850040
&IDACON3 SETC  '00000000'                                       X04SVHS 02900040
&IDAOBQC SETC  '00000000'                                       X04SVHS 02950040
&IDAIBQC SETC  '00000000'                                       X04SVHS 03000040
&IDAENO  SETA  0                                               @ZA06420 03050040
.*                                                                      03100040
&LENG    SETA  76                       SET NON VTAM LENGTH      X03004 03150040
         AIF   ('&AM' NE 'VTAM').SETLEN  WAS VTAM SPECIFIED      X03004 03200040
&LENG    SETA  112                      YES; SET VTAM LENGTH   @Z40BHUC 03250040
.SETLEN  ANOP                           NO; USE NON VTAM LENGTH  X03004 03300040
&NAME    DS    0F                                                       03350040
         DC    AL1(0)                   RPL IDENTIFICATION              03400040
&SUBTYPE SETA  X'10'                    SET VSAM SUBTYPE        X04SVHS 03450040
         AIF   ('&AM' EQ 'VSAM').SSTYPE CHK FOR AM = VSAM               03500040
         AIF   ('&AM' EQ '').SSTYPE     DEFAULT AM = VSAM               03550040
&SUBTYPE SETA  X'20'                    SET VTAM SUBTYPE        X04SVHS 03600040
         AIF   ('&AM' EQ 'VTAM').SSTYPE CHK FOR AM = VTAM       X04SVHS 03650040
.*                                      IF NOT ERROR            X04SVHS 03700040
&SUBTYPE SETA  0                        SET SUBTYPE TO ZERO     X04SVHS 03750040
         IDAVSERR 3,AM,&AM              ISSUE ERROR MSG        @ZA34940 03800040
.SSTYPE  ANOP                                                   X04SVHS 03850040
         DC    AL1(&SUBTYPE)            RPL SUBTYPE             X04SVHS 03900040
         DC    AL1(0)                   RPL REQUEST TYPE                03950040
         DC    AL1(&LENG)               RPL LENGTH               X03004 04000040
         IDAVSRPL OPTCD=&OPTCD,BRANCH=&BRANCH,POST=&POST,      @ZA34940*04050040
               RESPOND=&RESPOND,CHAIN=&CHAIN,CONTROL=&CONTROL,         *04100040
               CHNGDIR=&CHNGDIR,BRACKET=&BRACKET,SSENSEO=&SSENSEO,     *04150040
               CODESEL=&CODESEL,                               @Z40BHUC*04200040
               RTYPE=&RTYPE,STYPE=&STYPE,IBSQAC=&IBSQAC,               *04250040
               OBSQAC=&OBSQAC,CALLER=RPL,AM=&AM,                X04SVHSC04300040
               CRYPT=&CRYPT                                    @G40AKCM 04350040
.*                                                                      04400040
.*             IDAVSRPL IS CALLED TO PROCESS BIT KEYWORDS      @ZA34940 04450040
.*             OPTCD,                                          @ZA34940 04480040
.*             BRANCH, POST, RESPOND, CHAIN, CONTROL, CHNGDIR, BRACKET, 04550040
.*             CODESEL, SSENSEO, RTYPE, STYPE, IBSQAC, AND OBSQAC.      04600040
.*             IT WILL VALIDITY CHECK THE OPTIONS SPECIFIED, MUTUALLY   04650040
.*             EXCLUSIVE CHECK WHERE APPLICABLE, AND SET GLOBALS        04700040
.*             WITH THE VALUES OF THE KEYWORDS.                         04750040
.*                                                                      04800040
         DC    A(0) .                   POINTER TO PLACEHOLDER          04850040
         AIF   ('&ECB' EQ '' AND '&EXIT' EQ '').DEFAULT         X04SVHS 04900040
         AIF   ('&ECB' EQ '').EXIT      TRY EXIT IF NOT ECB      X03004 04950040
         DC    A(&ECB) .                POINTER TO ECB                  05000040
         AIF   ('&EXIT' EQ '').NOEXTSP                          X04SVHS 05050040
         IDAVSERR 19,ECB,EXIT           ISSUE ERROR MSG        @ZA34940 05100040
         AGO   .NOEXTSP                                          X03004 05140040
.EXIT    AIF   ('&EXIT' EQ '').DEFAULT  DEFAULT IF NOT EXIT     X04SVHS 05180040
         AIF   ('&AM' EQ 'VTAM').SETEXIT  WAS VTAM SPECIFIED     X03004 05220040
         IDAVSERR 18,EXIT               ISSUE ERROR MSG        @ZA34940 05260040
         AGO   .DEFAULT                 DO NOT SET ASYNCH EXIT   X03004 05350040
.SETEXIT ANOP                           SET ASYNCH EXIT          X03004 05450040
         DC    A(&EXIT) .               POINTER TO ASYNCH EXIT   X03004 05500040
&EXITB   SETB  1                                                 X03004 05550040
         AGO   .ENDEXIT                                          X03004 05600040
.DEFAULT ANOP                                                    X03004 05650040
         DC    A(0) .                   ECB                             05700040
.NOEXTSP ANOP                                                    X03004 05750040
&NOEXIT  SETB  1                                                 X03004 05800040
.ENDEXIT ANOP                                                    X03004 05850040
         DC    BL1'0' .                 STATUS BYTE                     05900040
         DC    XL3'0'                   FEEDBACK CODES                  05950040
.*                                                              X3004BH 06000040
.* IF AM=VTAM, A VTAM SECTION OVERLAYS THE TWO WORDS CONTAINING X3004BH 06050040
.* KEYLEN,STRING ID AND CONTROL CHARACTER POINTER.  IF NOT      X3004BH 06100040
.* VTAM, ALL VTAM KEYWORDS FOR THIS AREA ARE INVALID.           X3004BH 06150040
.*                                                              X3004BH 06200040
         AIF   ('&AM' EQ 'VTAM').OVLY16 IF VTAM GO TO OVERLAY   X3004BH 06250040
         DC    AL2(&KEYLEN) .           KEY LENGTH                      06300040
         DC    AL2(&TRANSID) .          TRANSID                 X04SVHS 06350040
         DC    A(&CCHAR)                POINTER TO CONTROL CHARACTER    06400040
.*                                                                      06450040
.*             THE ACB ADDRESS CAN BE SPECIFIED BY ACB= OR ACBDATA=     06500040
.ACB     ANOP                                                   X3004BH 06550040
         AIF   ('&ACBDATA' EQ '').TRYACB CHECK FOR ACB= IF NOT ACBDATA  06600040
         DC    A(&ACBDATA) .            POINTER TO DATA ACB             06650040
         AGO   .ACBEND                                                  06700040
.TRYACB  ANOP                                                           06750040
         AIF   ('&ACB' EQ '').NOACB      WAS ACB= SPECIFIED             06800040
         DC    A(&ACB) .                POINTER TO ACB                  06850040
         AGO   .ACBEND                                                  06900040
.NOACB   ANOP                                                           06950040
         DC    A(0) .                   RESERVED FOR ACB POINTER        07000040
.ACBEND  ANOP                                                           07050040
         DC    A(0) .                   POINTER TO TCB                  07100040
         DC    A(&AREA) .               POINTER TO RECORD AREA          07150040
.NIBARG  AIF   ('&NIB' EQ '').NONIB     BR IF NIB NOT SPECIFIED  X03004 07200040
         AIF   ('&ARG' EQ '0').NIB      BR IF ARG NOT SPECIFIED  X03004 07250040
         IDAVSERR 19,NIB,ARG            ISSUE ERROR MSG        @ZA34940 07300040
         DC    A(0)                     POINTER TO ARGUMENT      X03004 07350040
         AGO   .OPTCD                                           X3004BH 07400040
.NIB     ANOP                           NIB CHECK                X03004 07450040
         AIF   ('&AM' EQ 'VTAM').SETNIB WAS VTAM SPECIFIED       X03004 07500040
         IDAVSERR 18,NIB                ISSUE ERROR MSG        @ZA34940 07550040
         AGO   .NONIB                   SKIP NIB SETUP           X03004 07600040
.SETNIB  ANOP                           SET NIB                  X03004 07650040
         DC    A(&NIB)                  POINTER TO NIB           X03004 07700040
&NIBD    SETB  1                        INDICATE NIB SPECIFIED   X03004 07750040
         AGO   .OPTCD                                           X3004BH 07800040
.NONIB   ANOP                                                    X03004 07850040
         DC    A(&ARG) .                POINTER TO ARGUMENT             07900040
.OPTCD   ANOP                                                   X3004BH 07950040
&ECBX    SETB  ('&ECB' NE '' AND '&ECB' NE '0')                @XM01126 08000040
         DC    B'&IDAOP1&ECBX' .        OPTCD BYTE 1                    08050040
         DC    B'&IDAOP2' .            OPTCD BYTE 2                     08100040
         DC    AL1(0) .                 OPTCD BYTE 3            X04SVHS 08150040
         DC    AL1(0) .                 OPTCD BYTE 4            X04SVHS 08200040
         DC    A(&NXTRPL) .             POINTER TO NEXT RPL             08250040
.*             THE LRECL SIZE CAN BE SPECIFIED BY LEN= OR RECLEN=       08300040
         AIF   ('&LEN' EQ '').TRYLREC CHECK FOR RECLEN= IF NOT LEN      08350040
         DC    A(&LEN) .                LOGICAL RECORD LENGTH           08400040
         AGO   .LENEND                                                  08450040
.TRYLREC ANOP                                                           08500040
         AIF   ('&RECLEN' EQ '').NOLEN  WAS RECLEN= SPECIFIED           08550040
         DC    A(&RECLEN) .             LOGICAL RECORD LENGTH           08600040
         AGO   .LENEND                                                  08650040
.NOLEN   ANOP                                                           08700040
         DC    A(0) .                   RESERVED FOR LOGICAL REC LEN    08750040
.LENEND  ANOP                                                           08800040
.*             THE BUFFER SIZE CAN BE SPECIFIED BY BUFL= OR AREALEN=    08850040
         AIF   ('&BUFL' EQ '').TRYALEN CHECK FOR AREALEN= IF NOT BUFL   08900040
         DC    A(&BUFL) .               BUFFER LENGTH                   08950040
         AGO   .ALENEND                                                 09000040
.TRYALEN ANOP                                                           09050040
         AIF   ('&AREALEN' EQ '').NOALEN  WAS AREALEN= SPECIFIED        09100040
         DC    A(&AREALEN) .            BUFFER LENGTH                   09150040
         AGO   .ALENEND                                                 09200040
.NOALEN  ANOP                                                           09250040
         DC    A(0) .                   RESERVED FOR BUFFER LENGTH      09300040
.ALENEND ANOP                                                           09350040
*                                       OPTCD BYTES 5-8          X03004 09400040
         DC    B'&IDAOP5' .            BYTE 5                  X04SVHS  09450040
         DC    B'&IDAOP6' .            BYTE 6                  X04SVHS  09500040
         DC    B'&IDAOP7' .            BYTE 7                  X04SVHS  09550040
         DC    B'&IDAOP8' .            BYTE 8                  X04SVHS  09600040
.*                                                              X3004BH 09650040
.* IF AM=VTAM, A VTAM SECTION OVERLAYS THE TWO RBA WORDS.  IF   X3004BH 09700040
.* NOT VTAM, ALL VTAM KEYWORDS FOR THIS AREA ARE INVALID.       X3004BH 09750040
.*                                                              X3004BH 09800040
         AIF   ('&AM' EQ 'VTAM').OVLY60 IF VTAM GO TO OVERLAY   X3004BH 09850040
         AIF   ('&OBSQVAL' EQ '0').TSTIVL BRANCH IF NOT OBSQVAL X3004BH 09900040
         IDAVSERR 18,OBSQVAL            ISSUE ERROR MSG        @ZA34940 09950040
.TSTIVL  AIF   ('&IBSQVAL' EQ '0').TSTSEQ  BRANCH IF NOT IBSQVALX3004BH 09990040
         IDAVSERR 18,IBSQVAL            ISSUE ERROR MSG        @ZA34940 10030040
.TSTSEQ  AIF   ('&SEQNO' EQ '0').DEF60    BRANCH IF NOT SEQNO   X3004BH 10070040
         IDAVSERR 18,SEQNO              ISSUE ERROR MS         @ZA34940 10110040
.DEF60   ANOP                                                   X3004BH 10200040
         DC    XL8'0' .                 RBA                             10250040
.TSTBRCH ANOP                                                   X3004BH 10300040
         DC    B'0&NOEXIT&EXITB.0&IDACRYP&NIBD&IDABRCH.0'      @G40AKSL 10350040
         DC    AL1(0)                   ACTIVE INDICATOR                10400040
         DC    AL2(&MSGLEN) .           MAXIMUM ERROR MSG LENGTH        10450040
.*             THE MSGAREA CAN BE SPECIFIED BY ERRMSG OR MSGAREA        10500040
         AIF   ('&ERRMSG' EQ '').TRYMA CHECK FOR MSGAREA= IF NOT ERRMSG 10550040
         DC    A(&ERRMSG) .             POINTER TO ERROR MSG AREA       10600040
         AGO   .MAEND                                                   10650040
.TRYMA   ANOP                                                           10700040
         AIF   ('&MSGAREA' EQ '').NOMA  WAS MSGAREA= SPECIFIED          10750040
         DC    A(&MSGAREA) .            POINTER TO MESSAGE AREA         10800040
         AGO   .MAEND                                                   10850040
.NOMA    ANOP                                                           10900040
         DC    A(0) .                   RESERVED FOR MESSAGE AREA PTR   10950040
.MAEND   ANOP                                                    X03004 11000040
         AIF   ('&AM' EQ 'VTAM').VTAMEXT  WAS VTAM SPECIFIED     X03004 11050040
         AIF   ('&AAREA' EQ '0').NOAAREA  WAS AAREA SPECIFIED    X03004 11100040
         IDAVSERR 18,AAREA              ISSUE ERROR MSG        @ZA34940 11150040
.NOAAREA ANOP                           CHECK FOR AAREALN        X03004 11190040
         AIF   ('&AAREALN' EQ '0').NOARELN  AAREALN SPECIFIED    X03004 11230040
         IDAVSERR 18,AAREALN            ISSUE ERROR MSG        @ZA34940 11270040
.NOARELN ANOP                           CHECK FOR ARECLEN        X03004 11310040
         AIF   ('&ARECLEN' EQ '0').NOARCLN WAS ARECLEN SPECIFIED X03004 11350040
         IDAVSERR 18,ARECLEN            ISSUE ERROR MSG        @ZA34940 11390040
.NOARCLN ANOP                           CHECK FOR USENSEO       X3004BH 11430040
         AIF   ('&USENSEO' EQ '0').NOUSNSO WAS USENSEO SPECIFIEDX3004BH 11470040
         IDAVSERR 18,USENSEO            ISSUE ERROR MSG        @ZA34940 11510040
.NOUSNSO ANOP                                                   X3004BH 11550040
         AIF   ('&SSENSMO' EQ '0').NOSSNMO WAS SSENSMO SPEC    X03004JS 11590040
         IDAVSERR 18,SSENSMO            ISSUE ERROR MSG        @ZA34940 11630040
.NOSSNMO ANOP                           CHECK FOR SIGDATA      @Z40BHUC 11670040
         AIF   ('&SIGDATA' EQ '0').NOSIGDA WAS SIGDATA SPEC    @Z40BHUC 11710040
         IDAVSERR 18,SIGDATA            ISSUE ERROR MSG        @ZA34940 11750040
.NOSIGDA ANOP                           END OF CHECK           @Z40BHUC 11950040
         MEXIT                          NOT VTAM - END MACRO    X3004BH 12000040
.VTAMEXT ANOP                           SET VTAM PARAMETERS      X03004 12050040
         DC    A(&AAREA) .              ADDITIONAL DATA AREA PTR X03004 12100040
         DC    A(&AAREALN) .            ADDITIONAL AREA LENGTH   X03004 12150040
         DC    A(&ARECLEN) .            ADDITIONAL RECORD LENGTH X03004 12200040
         DC    XL4'0'                   FEEDBACK AREA            X03004 12250040
         DC    XL4'0'                   USER FIELD               X03004 12300040
         DC    B'&IDAOP9' .            OPTCD BYTE 9            X04SVHS  12350040
         DC    B'&IDAOPA' .            OPTCD BYTE 10           X04SVHS  12400040
         DC    B'&IDAOPB' .            OPTCD BYTE 11           X04SVHS  12450040
         DC    B'&IDAOPC' .            OPTCD BYTE 12           X04SVHS  12500040
         DC    B'&IDASNSO'              SYSTEM SENSE OUTPUT     X04SVHS 12550040
*                                       DATA                   X03004JS 12600040
         DC    AL1(&SSENSMO)            SYSTEM SENSE MODIFIER           12650040
*                                       OUTPUT                 X03004JS 12700040
         DC    AL2(&USENSEO)            USER SENSE OUTPUT       X3004BH 12750040
         DC    A(0)                     SAVE AREA OF FAST PATH @Z40BHUC 12800040
         DC    A(&SIGDATA)              SIGNAL DATA FIELD      @Z40BHUC 12850040
*                                                                       12900040
         MEXIT                          END OF VTAM EXTENSION   X3004BH 12950040
.*                                                              X3004BH 13000040
.* PROCESSING FOR VTAM FIELDS WHICH START AT OFFSET 16          X3004BH 13050040
.*                                                              X3004BH 13100040
.OVLY16  ANOP                                                   X3004BH 13150040
         DC    B'&IDARH3'               THIRD REQUEST HEADER            13200040
*                                                BYTE           X04SVHS 13250040
.*                                                              X3004BH 13300040
.* STYPE/RTYPE                                                  X3004BH 13350040
         DC    B'&IDASRTY'              SEND/RECEIVE TYPE       X04SVHS 13400040
         DC    B'&IDACHN'               REQUEST UNIT CHAIN POSITION     13450040
.*                                                              X04SVHS 13500040
         DC    X'00'                             VTAM FLAGS     X3004BH 13550040
         DC    B'&IDAPORE'              POST/RESPOND FLAGS      X04SVHS 13600040
         DC    B'&IDACON1'              DATA CONTROL            X04SVHS 13650040
         DC    B'&IDACON2'              DATA CONTROL            X04SVHS 13700040
         DC    B'&IDACON3'              SESSION CONTROL         X04SVHS 13750040
         AGO   .ACB                                             X3004BH 13800040
.*                                                              X3004BH 13850040
.* PROCESSING FOR VTAM FIELDS WHICH START AT OFFSET 60          X3004BH 13900040
.*                                                              X3004BH 13950040
.OVLY60  ANOP                                                   X3004BH 14000040
         DC    AL2(&OBSQVAL)            STSN OUTBOUND SEQ NO    X3004BH 14050040
         DC    AL2(&IBSQVAL)            STSN INBOUND SEQ NO     X3004BH 14100040
         DC    B'&IDAOBQC'              STSN OUTBOUND ACTION CODES      14150040
.*                                                              X04SVHS 14200040
         DC    B'&IDAIBQC'              STSN INBOUND ACTION CODES       14250040
.*                                                              X04SVHS 14300040
         DC    AL2(&SEQNO)              SEQUENCE NUMBER         X3004BH 14350040
         AGO   .TSTBRCH                                         X3004BH 14400040
         MEND                                                           14450040
