         MACRO                                                          00050002
&NAME    RPSGNL &FUNCTON,&CPU=                                          00100002
         GBLC  &MESSAGE                                                 00150002
         AIF   ('&NAME' EQ '').CONT                                     00200002
&NAME    DS    0H                                                       00250002
.CONT    AIF   ('&FUNCTON' NE '').SWITCH                                00300002
         IHBERMAC 24                                                    00350002
         MEXIT                                                          00400002
.SWITCH AIF    ('&FUNCTON' NE 'SWITCH').SIO                             00450002
         LA    0,128(0,0)               X'80' - SWITCH FUNCTN CODE WHEN 00500002
         SLL   0,24(0)                  SHIFTED INTO HIGH ORDER BYTE    00550002
         AGO   .TESTADR                                                 00600002
.SIO     AIF   ('&FUNCTON' NE 'SIO').RQCHECK                            00650002
         LA    0,64(0,0)                X'40' - SIO FUNCTION CODE WHEN  00700002
         SLL   0,24(0)                  SHIFTED INTO HIGH ORDER BYTE    00750002
         AGO   .TESTADR                                                 00800002
.RQCHECK AIF   ('&FUNCTON' NE 'RQCHECK').GTFCRM                         00850002
         LA    0,32(0,0)                X'20' - RQCHECK FUNCTN CDE WHEN 00900002
         SLL   0,24(0)                  SHIFTED INTO HIGH ORDER BYTE    00950002
         AGO   .TESTADR                                                 01000002
.GTFCRM  AIF   ('&FUNCTON' NE 'GTFCRM').MODE                            01050002
         LA    0,16(0,0)                X'10' - GTFCRM FUNCTN CODE WHEN 01100002
         SLL   0,24(0)                  SHIFTED INTO HIGH ORDER BYTE    01150002
         AGO   .TESTADR                                                 01200002
.MODE    AIF   ('&FUNCTON' NE 'MODE').MF1TCH                            01450002
         LA    0,4(0,0)                 X'04'   MODE FUNCTION CODE WHEN 01500002
         SLL   0,24(0)                  SHIFTED INTO HIGH ORDER BYTE    01550002
         AGO   .TESTADR                                                 01600002
.MF1TCH  AIF   ('&FUNCTON' NE 'MF1TCH').ERR                             01650002
         LA    0,2(0,0)                 X'02' - MF1TCH FUNCTN CDE WHEN  01700002
         SLL   0,24(0)                  SHIFTED INTO HIGH ORDER BYTE    01750002
         AGO   .TESTADR                                                 01800002
.ERR     ANOP                                                           01850002
         IHBERMAC 1001,FUNCTION,&FUNCTON                                01900002
         MEXIT                                                          01950002
.TESTADR AIF   ('&CPU' EQ '(1)').MNLCDE                                 02000002
         AIF   ('&CPU' NE '').ADRCDE                                    02050002
         IHBERMAC 1006,CPU                                              02100002
         MEXIT                                                          02150002
.ERREG1  ANOP                                                           02200002
&MESSAGE SETC  'REGISTER NOTATION'                                      02250002
.*       IHB280 REGISTER NOTATION INVALID WITH CPU                      02300002
         IHBERMAC 1020,&MESSAGE,CPU                                     02350002
         MEXIT                                                          02400002
.ADRCDE  ANOP                                                           02450002
         AIF   ('&CPU'(1,1) EQ '(').ERREG1                              02500002
         LA    1,&CPU                   PHYSICAL CCA ADDRESS            02550002
.MNLCDE  ANOP                                                           02600002
         L     14,CVTPTR(0,0)           CVT ADDRESS                     02650002
         L     15,CVTIPCRP-CVT(0,14)    IEAVERP ENTRY POINT ADDRESS     02700002
         BALR  14,15                    ENTER IEAVERP AND EST RETURN    02750002
         MEND                                                           03250002
