         MACRO                                                          00050000
&NAME    SAVE  &REG,&CODE,&ID                                           00100000
         LCLA  &A,&B,&C                                                 00150000
         LCLC  &E,&F,&G,&H                                              00200000
         AIF   ('&REG' EQ '').E1                                        00250000
         AIF   ('&ID' EQ '').NULLID                                     00300000
         AIF   ('&ID' EQ '*').SPECID                                    00350000
         AIF   ('&ID'(1,1) NE '''').NOQUOTE                    @ZA58263 00366603
&B       SETA  1                                               @ZA58263 00383203
&C       SETA  2                                               @ZA58263 00399803
.NOQUOTE ANOP                                                  @ZA58263 00416403
&A       SETA  ((K'&ID+2)/2)*2+4-&C                            @ZA58263 00433003
&NAME    B     &A.(0,15)                         BRANCH AROUND ID       00450000
&A       SETA  K'&ID-&C                                        @ZA58863 00500003
         DC    AL1(&A)                           LENGTH OF IDENTIFIER   00550000
.CONTB   AIF   (&A GT 32).SPLITUP                                       00600000
.CONTAA  AIF   (&A GT 8).BRAKDWN                                        00650000
&E       SETC  '&ID'(&B+1,&A)                                           00700000
         DC    CL&A'&E'                          IDENTIFIER             00750000
         AGO   .CONTA                                                   00800000
.BRAKDWN ANOP                                                           00850000
&E       SETC  '&ID'(&B+1,8)                                            00900000
         DC    CL8'&E'                           IDENTIFIER             00950000
&B       SETA  &B+8                                                     01000000
&A       SETA  &A-8                                                     01050000
         AGO   .CONTAA                                                  01100000
.SPLITUP ANOP                                                           01150000
&E       SETC  '&ID'(&B+1,8)                                            01200000
&F       SETC  '&ID'(&B+9,8)                                            01250000
&G       SETC  '&ID'(&B+17,8)                                           01300000
&H       SETC  '&ID'(&B+25,8)                                           01350000
         DC    CL32'&E.&F.&G.&H'                      IDENTIFIER        01400000
&B       SETA  &B+32                                                    01450000
&A       SETA  &A-32                                                    01500000
         AGO   .CONTB                                                   01550000
.NULLID  ANOP                                                           01600000
&NAME    DS    0H                                                       01650000
         AGO   .CONTA                                                   01700000
.SPECID  AIF   ('&NAME' EQ '').CSECTN                                   01750000
&E       SETC  '&NAME'                                                  01800000
&A       SETA  1                                                        01850000
.CONTQ   AIF   ('&E'(1,&A) EQ '&E').LEAVE                               01900000
&A       SETA  &A+1                                                     01950000
         AGO   .CONTQ                                                   02000000
.LEAVE   ANOP                                                           02050000
&B       SETA  ((&A+2)/2)*2+4                                           02100000
&NAME    B     &B.(0,15)                         BRANCH AROUND ID       02150000
         DC    AL1(&A)                                                  02200000
         DC    CL&A'&E'                          IDENTIFIER             02250000
         AGO   .CONTA                                                   02300000
.CSECTN  AIF   ('&SYSECT' EQ '').E4                                     02350000
&E       SETC  '&SYSECT'                                                02400000
&A       SETA  1                                                        02450000
         AGO   .CONTQ                                                   02500000
.E4      IHBERMAC 78,360                    CSECT NAME NULL             02550000
.CONTA   AIF   (T'&REG(1) NE 'N').E3                                    02600000
         AIF   ('&CODE' EQ 'T').CONTC                                   02650000
         AIF   ('&CODE' NE '').E2                                       02700000
&A       SETA  &REG(1)*4+20                                             02750000
         AIF   (&A LE 75).CONTD                                         02800000
&A       SETA  &A-64                                                    02850000
.CONTD   AIF   (N'&REG NE 2).CONTE                                      02900000
         STM   &REG(1),&REG(2),&A.(13)           SAVE REGISTERS         02950000
         MEXIT                                                          03000000
.CONTE   AIF   (N'&REG NE 1).E3                                         03050000
         ST    &REG(1),&A.(13,0)                 SAVE REGISTER          03100000
         MEXIT                                                          03150000
.CONTC   AIF   (&REG(1) GE 14 OR &REG(1) LE 2).CONTF                    03200000
         STM   14,15,12(13)                      SAVE REGISTERS         03250000
&A       SETA  &REG(1)*4+20                                             03300000
         AIF   (N'&REG NE 2).CONTG                                      03350000
         STM   &REG(1),&REG(2),&A.(13)           SAVE REGISTERS         03400000
         MEXIT                                                          03450000
.CONTG   AIF   (N'&REG NE 1).E3                                         03500000
         ST    &REG(1),&A.(13,0)                 SAVE REGISTER          03550000
         MEXIT                                                          03600000
.CONTF   AIF   (N'&REG NE 2).CONTH                                      03650000
         STM   14,&REG(2),12(13)                 SAVE REGISTERS         03700000
         MEXIT                                                          03750000
.CONTH   AIF   (N'&REG NE 1).E3                                         03800000
         STM   14,&REG(1),12(13)                 SAVE REGISTERS         03850000
         MEXIT                                                          03900000
.E1      IHBERMAC 18,360                    REG PARAM MISSING           03950000
         MEXIT                                                          04000000
.E2      IHBERMAC 37,360,&CODE              INVALID CODE SPECIFIED      04050000
         MEXIT                                                          04100000
.E3      IHBERMAC 36,360,&REG               INVALID REGS. SPECIFIED     04150000
         MEND                                                           04200000
