         MACRO                                                          00020000
&NAME    SCRATCH &LIST,&DUMMY=                                          00040017
         AIF   (T'&LIST EQ 'O').E1                                      00060000
&NAME    IHBINNRA &LIST                     LOAD REG 1                  00080000
         SVC   29                                ISSUE SCRATCH SVC      00100000
         MEXIT                                                          00120000
.E1      IHBERMAC 34                    LIST ADDR MISSING               00140018
         MEND                                                           00160000
