         MACRO                                                          01000020
&NAME    SCREEN &MOD,&CHARS,&BLANK=YES,&RETRV=NO                 S99228 02000010
.*C070000                                                        A42385 02300022
.*A160000,380000                                                 A42385 02600022
.*A168000,262000-266000,380100-380400,451000-455000              S99228 02700010
.*C020000,270000,330000,370000,460000                            S99228 02800010
         GBLA  &IEDQZD,&IEDQZE(64)                                      03000020
         GBLB  &IEDQZA(64)                                              04000020
         GBLC  &IEDQZC                                                  05000020
         LCLB  &IX,&NOGO                                                06000020
.*             VERSION DATED OCTOBER 23, 1970                           07000020
.*             VERSION DATED FEBRUARY 7, 1972                    A42385 07500022
         SPACE                                                          08000020
         AIF   (NOT &IEDQZA(9)).TSO001                              TSO 08300020
         MNOTE 12,'***  IHB312  MUST FOLLOW STARTMH MACRO WITH TSOMH=NO*08600020
               '                                                    TSO 08900020
&NOGO    SETB  1                                                    TSO 09200020
.TSO001  AIF   (&IEDQZA(4)).OP                                      TSO 09500020
         MNOTE 12,'***  IHB070  SEQUENCE ERROR - MUST FOLLOW OUTHDR MAC*10000020
               RO'                                                      11000020
&NOGO    SETB  1                                                        12000020
.OP      AIF   ('&MOD' EQ '').CH                                        13000020
&IX      SETB  1                                                        14000020
         AIF   ('&MOD' EQ 'WDC' OR '&MOD' EQ 'WRE' OR '&MOD' EQ 'WLA').*15000020
               CH                                                       16000020
         AIF   ('&MOD' EQ 'XDC' OR '&MOD' EQ 'XRE' OR '&MOD' EQ        *16300022
               'XLA').CH                                         A42385 16600022
         AIF   ('&MOD' EQ 'EAU').CH                              S99228 16800010
         MNOTE 12,'***  IHB300  COMMAND OPERAND INVALID AS SPECIFIED'   17000020
&NOGO    SETB  1                                                        18000020
.CH      AIF   ('&CHARS' EQ '').AY                                      21000020
         IEDQCHAR 8,&CHARS                                              22000020
         AIF   (&IEDQZA(24)).ERR                                        23000020
         AIF   (&IEDQZD LE 8).AY                                        24000020
.ERR     MNOTE 12,'***  IHB300  CHARACTER OPERAND INVALID AS SPECIFIED' 25000020
&NOGO    SETB  1                                                        26000020
.AY      AIF  ('&RETRV' EQ 'YES' OR '&RETRV' EQ 'NO').OK         S99228 26200010
         MNOTE 12,'***IHB002 RETRV OPERAND SPECIFIED &RETRV'     S99228 26400010
&NOGO    SETB  1                                                 S99228 26600010
.OK      AIF   (&NOGO).MEND                                      S99228 27000010
         AIF   ('&NAME' EQ '').VCON                                     27500020
&NAME    DS    0H                                                       28000020
.VCON    IEDQVCON 25,IEDQAY                                             28500020
         AIF   ('&CHARS' EQ '').NOCH                                    29000020
         IEDQSCAN &IEDQZD,&CHARS,&BLANK                                 30000020
         AIF   (&IEDQZA(24)).MEND                                       31000020
         LTR   15,15                                                    32000020
         BNP   *+26                                              S99228 33000010
         L     1,IEDADBUF                                               35000020
         STH   15,24(,1)                                                36000020
.NOCH    BAL   1,*+8                                             S99228 37000010
         DC    AL1(&IEDQZE(25)+&IX)                                     38000020
         AIF   ('&MOD' NE 'EAU').CKXDC                           S99228 38010010
         DC    AL1(3)              ERASE ALL UNPROTECTED         S99228 38020010
         AGO   .L                                                S99228 38030010
.CKXDC   ANOP                                                    S99228 38040010
         AIF   ('&MOD' NE 'XDC').RELB                            A42385 38090022
         DC    AL1(16+0) .              WRITE DISPLAY W/O KR     A42385 38180022
         AGO   .L                                                A42385 38270022
.RELB    AIF   ('&MOD' NE 'XRE').RELC                            A42385 38360022
         DC    AL1(16+2) .              WRITE ERASE W/O KR       A42385 38450022
         AGO   .L                                                A42385 38540022
.RELC    AIF   ('&MOD' NE 'XLA').RELD                            A42385 38630022
         DC    AL1(16+1) .              WRITE AT LINE ADDR W/O KRA42385 38720022
         AGO   .L                                                A42385 38810022
.RELD    ANOP                                                    A42385 38900022
         AIF   ('&MOD' NE '' AND '&MOD' NE 'WDC').RELA                  39000020
         DC    AL1(0) .                 WRITE DISPLAY                   40000020
         AGO   .L                                                       41000020
.RELA    AIF   ('&MOD' EQ 'WLA').LA                                     42000020
         DC    AL1(2) .                 WRITE ERASE                     43000020
         AGO   .L                                                       44000020
.LA      DC    AL1(1) .                 WRITE AT LINE ADDRESS           45000020
.L       AIF   ('&RETRV' NE 'YES').RETNO                         S99228 45100010
         DC    AL1(128)             RETRIEVE=YES                 S99228 45200010
         AGO   .E                                                S99228 45300010
.RETNO   ANOP                                                    S99228 45400010
         DC    AL1(0)               RETRIEVE NOT = YES           S99228 45500010
.E       L     15,IEDUI                                          S99228 46000010
         BALR  14,15                                                    47000020
.MEND    SPACE 2                                                        48000020
         MEND                                                           49000020
