         MACRO                                                          00050002
&NAME    SDUMP &HDR=,&HDRAD=,&DCB=,&ASID=,&ASIDLST=,&ECB=,&SDATA=,     X00070043
               &STORAGE=,&LIST=,&SUMLIST=,&BUFFER=,&QUIESCE=,&BRANCH=, X00100043
               &MF=                                            @G33VPHD 00150043
.*                                                                      00200002
.*       DEFINE SET SYMBOLS                                             00250002
.*                                                                      00300002
         LCLA  &SDFLAG0           SDFLAG0 FIELD OF PARAMETER LIST       00350002
         LCLA  &SDFLAG1           SDFLAG1 FIELD OF PARAMETER LIST       00400002
         LCLA  &SDATAF1,&SDATAF2  SDATA FIELD OF PARAMETER LIST         00450002
         LCLA  &CTR1,&CTR2        COUNTERS FOR LOOP CONTROL, INDEX      00500002
         LCLA  &HDRCTR            NUMBER OF PAIRED APOSTROPHES          00510002
         LCLA  &DISP              DISPLACEMENT FOR STORING ADDRESSES    00550002
         LCLC  &GNAME             SYMBOLIC NAME-BRANCH AROUND CONSTANTS 00600002
         LCLB  &SDDCB             SET IF DCB ADDRESS IS SPECIFIED       00650002
         LCLB  &SDBUFF            SET IF BUFFER IS TO BE DUMPED         00700002
         LCLB  &SDSTOR            SET IF STORAGE OR LIST IS SPECIFIED   00750002
         LCLB  &SDHDR             SET IF HDR OR HDRAD IS SPECIFIED      00800002
         LCLB  &SDECB             SET IF AN ECB ADDRESS IS SUPPLIED     00850002
         LCLB  &SDASID            SET IF AN ASID IS SPECIFIED           00900002
         LCLB  &SDASIDL           SET IF AN ASIDLIST IS SPECIFIED       00910043
.*                                                             @G33VPHD 00920043
         LCLB  &SDQUIET           SET IF SYSTEM IS TO BE QUIESCED       00950002
         LCLB  &SDBRNCH           SET IF INTERFACE IS BRANCH ENTRY      01000002
         LCLB  &DUMPTYP           ALWAYS SET FOR SVC DUMP               01050002
         LCLB  &SDALPSA           SET IF ALL PSA IN SYSTEM TO BE DUMPED 01100002
         LCLB  &SDPSA             SET IF CURRENT PSA IS TO BE DUMPED    01150002
         LCLB  &SDNUC             SET IF NUCLEUS IS TO BE DUMPED        01200002
         LCLB  &SDSQA             SET IF SQA IS TO BE DUMPED            01250002
         LCLB  &SDLSQA            SET IF LSQA IS TO BE DUMPED           01300002
         LCLB  &SDRGN             SET IF VIRTUAL MEMORY IS TO BE DUMPED 01350002
         LCLB  &SDLPA             SET IF ACTIVE LPA MOD FOR MEMORY REQ  01400002
         LCLB  &SDTRT             SET IF GTF INCORE TRACE BUFFERS  REQ  01450002
         LCLB  &SDCSA             SET IF CSA SUBPOOLS ARE TO BE DUMPED  01500002
         LCLB  &SDSWA             SET IF SWA FOR MEMORY TO BE DUMPED    01550002
.*                                                                      01600002
         LCLB  &SDSUMLT           SET IF SUMLIST SPECIFIED     @G33VPHD 01607043
         LCLB  &SDSMDMP           SET IF SUMDUMP SPECIFIED     @G33VPHD 01614043
         LCLB  &SDNSMDP           SET IF NO SUMDUMP SPECIFIED  @G33VPHD 01621043
         LCLB  &SDNSQA            SET IF NO SQA SPECIFIED      @G33VPHD 01628043
         LCLB  &SDNAPSA           SET IF NOALLPSA IS SPECIFIED @G33VPHD 01635043
         LCLB  &SDNEW             SET IF ENHANCED SVC DUMP     @G33VPHD 01642043
.*       INITIAL ERRORS                                                 01650002
.*                                                                      01700002
         AIF   ('&HDR' NE '' AND '&HDRAD' NE '').MESG2A     MUTUALLY    01750002
         AIF   ('&STORAGE' NE '' AND '&LIST' NE '').MESG2B   EXCLUSIVE  01800002
         AIF   ('&HDR' EQ '').SD3           HDR SPECIFIED               01802002
         AIF   ('&HDR'(1,1) NE '''').MESG9  IS FIRST CHAR APOSTROPHE    01802402
&CTR1    SETA  K'&HDR-1                     LENGTH OF USER DATA +1      01804002
&HDRCTR  SETA  0                            NUMBER OF PAIRED APOSTROHES 01804402
&CTR2    SETA  2                            INDEX FIRST CHAR-USER DATA  01804802
.SDLOOP  ANOP                                                           01805202
         AIF   (&CTR2 GE &CTR1).SD2              END OF SCAN            01805602
         AIF   ('&HDR'(&CTR2,2) EQ '''''').SD1   PAIRED APOSTROPHES     01805702
&CTR2    SETA  &CTR2+1                           UPDATE INDEX BY 1      01805802
         AGO   .SDLOOP                           CONTINUE LOOP          01805902
.SD1     ANOP                                                           01809402
&HDRCTR  SETA  &HDRCTR+1                    ONE MORE PAIRED APOSTROPHES 01811402
&CTR2    SETA  &CTR2+2                      UPDATE INDEX BY 2           01811802
         AGO   .SDLOOP                      CONTINUE LOOP               01812202
.SD2     ANOP                                                           01812602
&CTR1    SETA  K'&HDR-2-&HDRCTR             LENGTH OF USER DATA         01812702
         AIF   (&CTR1 GT 100).MESG8         USER DATA TOO LONG          01813002
.SD3     AIF   ('&MF' NE 'L').SD5           IS MF STANDARD OR EXECUTE   01816502
         AIF   ('&ASID' NE '').MESG5A       ASID INVALID W/MF=L         01820002
         AIF   ('&ECB' NE '').MESG5B        ECB INVALID W/MF=L          01830002
         AIF   ('&BRANCH' NE '').MESG5C     BRANCH INVALID W/MF=L       01840002
         AIF   ('&ASIDLST' NE '').MESG5D   ASID INV W/MF=L     @G33VPHD 01840343
         AIF   ('&SUMLIST' NE '').MESG5E   SUMLIST INV W/MF=L  @G33VPHD 01840643
         AGO   .SD8                 BYPASS STANDARD, EXEC FORM @G33VPHD 01841043
.SD5     AIF   ('&ASID' NE '').SD7          IS ASID SPECIFIED  @G33VPHD 01843043
         AIF   ('&ASIDLST' NE '').SD8      IS ASIDLIST SPECIFIED        01844043
.*                                                             @G33VPHD 01846043
         AIF   ('&BRANCH' EQ 'YES').MESG3A   BRANCH WITHOUT ASID OR     01846643
.*                                                     ASIDLIST INVALID 01848043
.*                                                             @G33VPHD 02250043
         AIF   ('&ECB' NE '').MESG3B        ECB WITHOUT ASID OR         02260043
.*                                                     ASIDLIST INVALID 02300043
.*                                                             @G33VPHD 02305043
.SD7     AIF   ('&ASIDLST' NE '').MESG10    ASID WITH ASSIDLIST INVALID 02310043
.*                                                             @G33VPHD 02315043
.SD8     AIF   ('&BUFFER' EQ '').SD9        IS BUFFER SPECIFIED         02320043
.*                                                             @G33VPHD 02325043
         AIF   ('&BUFFER' NE 'YES' AND '&BUFFER' NE 'NO').MESG4B        02330043
.*                                                             @G33VPHD 02335043
.SD9     AIF   ('&BRANCH' EQ '').SD11       IS BRANCH SPECIFIED         02350002
         AIF   ('&BRANCH' NE 'YES' AND '&BRANCH' NE 'NO').MESG4C        02400002
.SD11    AIF   ('&QUIESCE' EQ '').SD13      IS QUIESCE SPECIFIED        02450002
         AIF   ('&QUIESCE' NE 'YES' AND '&QUIESCE' NE 'NO').MESG4D      02500002
.SD13    AIF   ('&STORAGE' EQ '').SD15      IS STORAGE SPECIFIED        02550002
&CTR1    SETA  N'&STORAGE/2                 NUMBER OF ADDRESS PAIRS     02600002
&CTR2    SETA  (N'&STORAGE-1)/2             NUMBER OF PAIRS MINUS 1     02650002
         AIF   (&CTR1 EQ &CTR2).MESG6       ODD NUMBER OF ADDRESSES     02700002
.SD15    ANOP                                                           02750002
.*                                                                      02800002
.*       SDFLAG0 PROCESSING                                             02850002
.*                                                                      02900002
&SDDCB   SETB  ('&DCB' NE '')                IF DCB SPECIFIED           02950002
&SDBUFF  SETB  ('&BUFFER' EQ 'YES')          IF BUFFER TO BE DUMPED     03000002
&SDSTOR  SETB  ('&STORAGE' NE '' OR '&LIST' NE '')    STORAGE ADDR LIST 03050002
&SDHDR   SETB  ('&HDR' NE '' OR '&HDRAD' NE '')       USER DATA         03100002
&SDECB   SETB  ('&ECB' NE '')                IF ECB SPECIFIED           03150002
&SDASID  SETB  ('&ASID' NE '')               IF ASID SPECIFIED          03200002
&SDQUIET SETB  ('&QUIESCE' NE 'NO')          IF SYSTEM TO BE QUIESCED   03250002
&SDBRNCH SETB  ('&BRANCH' EQ 'YES')          IF LINKAGE BY BRANCH ENTRY 03300002
&SDFLAG0 SETA  128*&SDDCB+64*&SDBUFF+32*&SDSTOR+16*&SDHDR+8*&SDECB+4*&SX03350002
               DASID+2*&SDQUIET+1*&SDBRNCH                              03400002
.*                                                                      03450002
.*       SDFLAG1 PROCESSING                                             03500002
.*                                                                      03550002
&DUMPTYP SETB  1                  ALWAYS ON FOR SVC DUMP                03600002
&SDNEW   SETB  1                  ALWAYS SET TO 1 FOR NEW SDUMP MACRO   03620043
.*                                                             @G33VPHD 03650043
&SDASIDL SETB  ('&ASIDLST' NE '') IF ASIDLIST WAS SPECIFIED             03656043
.*                                                             @G33VPHD 03662043
&SDSUMLT SETB  ('&SUMLIST' NE '') IF SUMLIST WAS SPECIFIED              03668043
.*                                                             @G33VPHD 03674043
&SDFLAG1 SETA  128*&DUMPTYP+32*&SDNEW+16*&SDASIDL+8*&SDSUMLT            03680043
.*                                                             @G33VPHD 03686043
.*                                                                      03700002
.*       SDATA PROCESSING                                               03750002
.*                                                                      03800002
         AIF   ('&SDATA' EQ '').SD80        IS SDATA SPECIFIED          03850002
         AIF   ('&SDATA'(1,1) EQ '(').SD60  MORE THAN 1 OPTION, IN ()   03900002
&CTR1    SETA  0                                                        03950002
&SDALPSA SETB  ('&SDATA' EQ 'ALLPSA')       SET IF ALLPSA SPECIFIED     04000002
&SDPSA   SETB  ('&SDATA' EQ 'PSA')          SET IF PSA SPECIFIED        04050002
&SDNUC   SETB  ('&SDATA' EQ 'NUC')          SET IF NUC SPECIFIED        04100002
&SDSQA   SETB  ('&SDATA' EQ 'SQA')          SET IF SQA SPECIFIED        04150002
&SDLSQA  SETB  ('&SDATA' EQ 'LSQA')         SET IF LSQA SPECIFIED       04200002
&SDRGN   SETB  ('&SDATA' EQ 'RGN')          SET IF RGN SPECIFIED        04250002
&SDLPA   SETB  ('&SDATA' EQ 'LPA')          SET IF LPA SPECIFIED        04300002
&SDTRT   SETB  ('&SDATA' EQ 'TRT')          SET IF TRT SPECIFIED        04350002
&SDCSA   SETB  ('&SDATA' EQ 'CSA')          SET IF CSA SPECIFIED        04400002
&SDSWA   SETB  ('&SDATA' EQ 'SWA')          SET IF SWA SPECIFIED        04450002
&SDSMDMP SETB  ('&SDATA' EQ 'SUMDUMP' OR '&SDATA' EQ 'SUM')             04453043
.*                         SET IF SUMDUMP OR SUM ARE SPECIFIED @G33VPHD 04455043
&SDNSQA  SETB  ('&SDATA' EQ 'NOSQA')        SET IF NOSQA SPECIFIED      04459043
.*                                                             @G33VPHD 04462043
&SDNAPSA SETB  ('&SDATA' EQ 'NOALLPSA' OR '&SDATA' EQ 'NOALL')          04465043
.*                          SET IF NOALLPSA OR NOALL SPECIFIED @G33VPHD 04467043
&SDNSMDP SETB  ('&SDATA' EQ 'NOSUMDUMP' OR '&SDATA' EQ 'NOSUM')         04483043
.*          SET IF NOSUMDUMP OR NOSUM ARE SPECIFIED            @G33VPHD 04485043
&CTR1    SETA  &SDALPSA+&SDPSA+&SDNUC+&SDSQA+&SDLSQA+&SDRGN+&SDLPA+&SDTX04500002
               RT+&SDCSA+&SDSWA+&SDSMDMP+&SDNSMDP+&SDNSQA+&SDNAPSA      04520043
.*                                                             @G33VPHD 04550043
&CTR2    SETA  1                            IF INVALID, MESG PRINTS IT  04600002
         AIF   ('&CTR1' EQ '0').MESG4A      IS SPECIFIED OPTION VALID   04650002
         AGO   .SD80                        SDATA OPTION PROCESSED      04700002
.SD60    ANOP                     SDATA OPTIONS IN PARENTHESIS          04750002
&CTR1    SETA  N'&SDATA           NUMBER OF OPTIONS ON SDATA PARAMETER  04800002
&CTR2    SETA  0                  NUMBER BY POSITION OPERAND WORKING ON 04850002
.LOOPA1  ANOP                                                           04900002
&CTR2    SETA  &CTR2+1            NUMBER OF NEXT OPTION TO WORK ON      04950002
         AIF   ('&SDATA(&CTR2)' EQ 'ALLPSA').SETAPSA                    05000002
         AIF   ('&SDATA(&CTR2)' EQ 'PSA').SETPSA                        05050002
         AIF   ('&SDATA(&CTR2)' EQ 'NUC').SETNUC                        05100002
         AIF   ('&SDATA(&CTR2)' EQ 'SQA').SETSQA                        05150002
         AIF   ('&SDATA(&CTR2)' EQ 'LSQA').SETLSQA                      05200002
         AIF   ('&SDATA(&CTR2)' EQ 'RGN').SETRGN                        05250002
         AIF   ('&SDATA(&CTR2)' EQ 'LPA').SETLPA                        05300002
         AIF   ('&SDATA(&CTR2)' EQ 'TRT').SETTRT                        05350002
         AIF   ('&SDATA(&CTR2)' EQ 'CSA').SETCSA                        05400002
         AIF   ('&SDATA(&CTR2)' EQ 'SWA').SETSWA                        05450002
         AIF   ('&SDATA(&CTR2)' EQ 'SUMDUMP').SETSUM SUMDUMP SPEC       05452043
.*                                                             @G33VPHD 05454043
         AIF   ('&SDATA(&CTR2)' EQ 'SUM').SETSUM  SET IF SUM SPECIFIED  05456043
.*                                                             @G33VPHD 05458043
         AIF   ('&SDATA(&CTR2)' EQ 'NOSUMDUMP').SETNSUM SET IF          05460043
.*                                   NO SUMDUMP IS SPECIFIED   @G33VPHD 05461043
         AIF   ('&SDATA(&CTR2)' EQ 'NOSUM').SETNSUM  SET IF NOSUM IS    05466043
.*                                                   SPECIFIED          05468043
.*                                                             @G33VPHD 05470043
         AIF   ('&SDATA(&CTR2)' EQ 'NOSQA').SETNSQA  SET IF NOSQA SPEC  05472043
.*                                                             @G33VPHD 05474043
         AIF   ('&SDATA(&CTR2)' EQ 'NOALLPSA').SETNAPA                  05476043
.*                                                             @G33VPHD 05478043
         AIF   ('&SDATA(&CTR2)' EQ 'NOALL').SETNAPA                     05480043
.*                                                             @G33VPHD 05482043
         AGO   .MESG4A                 SDATA OPTION IS INVALID          05500002
.LOOPA2  AIF   (&CTR1 NE &CTR2).LOOPA1 MORE OPTIONS, CONTINUE LOOP      05650002
         AGO   .SD80                   ALL OPTIONS PROCESSED            05700002
.SETAPSA ANOP                          ALLPSA SPECIFIED                 05750002
         AIF   (&SDNAPSA EQ 1).MESG13  NOALLPSA AND ALLPSA IS ERROR     05760043
.*                                                             @G33VPHD 05770043
&SDALPSA SETB  1                       SET INDICATOR                    05800002
         AGO   .LOOPA2                 CONTINUE LOOP                    05850002
.SETPSA  ANOP                          PSA SPECIFIED                    05900002
&SDPSA   SETB  1                       SET INDICATOR                    05950002
         AGO   .LOOPA2                 CONTINUE LOOP                    06000002
.SETNUC  ANOP                          NUC SPECIFIED                    06050002
&SDNUC   SETB  1                       SET INDICATOR                    06100002
         AGO   .LOOPA2                 CONTINUE LOOP                    06150002
.SETSQA  ANOP                          SQA SPECIFIED                    06200002
         AIF   (&SDNSQA EQ 1).MESG12   SQA AND NOSQA IS ERROR           06210043
.*                                                             @G33VPHD 06220043
&SDSQA   SETB  1                       SET INDICATOR                    06250002
         AGO   .LOOPA2                 CONTINUE LOOP                    06300002
.SETLSQA ANOP                          LSQA SPECIFIED                   06350002
&SDLSQA  SETB  1                       SET INDICATOR                    06400002
         AGO   .LOOPA2                 CONTINUE LOOP                    06450002
.SETRGN  ANOP                          RGN SPECIFIED                    06500002
&SDRGN   SETB  1                       SET INDICATOR                    06550002
         AGO   .LOOPA2                 CONTINUE LOOP                    06600002
.SETLPA  ANOP                          LPA SPECIFIED                    06650002
&SDLPA   SETB  1                       SET INDICATOR                    06700002
         AGO   .LOOPA2                 CONTINUE LOOP                    06750002
.SETTRT  ANOP                          TRT SPECIFIED                    06800002
&SDTRT   SETB  1                       SET INDICATOR                    06850002
         AGO   .LOOPA2                 CONTINUE LOOP                    06900002
.SETCSA  ANOP                          CSA SPECIFIED                    06950002
&SDCSA   SETB  1                       SET INDICATOR                    07000002
         AGO   .LOOPA2                 CONTINUE LOOP                    07050002
.SETSWA  ANOP                          SWA SPECIFIED                    07100002
&SDSWA   SETB  1                       SET INDICATOR                    07150002
         AGO  .LOOPA2                  CONTINUE LOOP                    07151043
.SETSUM  ANOP                          SUMDUMP OR SUM SPECIFIED         07152043
.*                                                             @G33VPHD 07154043
         AIF   (&SDNSMDP EQ 1).MESG11  NOSUMDUMP AND SUMDUMP IS ERROR   07156043
.*                                                             @G33VPHD 07158043
&SDSMDMP SETB  1                       SET SUMDUMP INDICATOR            07160043
.*                                                             @G33VPHD 07162043
         AGO   .LOOPA2                 CONTINUE LOOP                    07164043
.*                                                             @G33VPHD 07166043
.SETNSUM ANOP                          NOSUMDUMP OR NOSUM SPECIFIED     07168043
.*                                                             @G33VPHD 07170043
         AIF   (&SDSMDMP EQ 1).MESG11  NOSUMDUMP AND SUMDUMP IS ERROR   07172043
.*                                                             @G33VPHD 07174043
&SDNSMDP SETB  1                       SET NOSUMDUMP INDICATOR          07176043
.*                                                             @G33VPHD 07178043
         AGO   .LOOPA2                 CONTINUE LOOP                    07180043
.*                                                             @G33VPHD 07182043
.SETNSQA ANOP                          NOSQA SPECIFIED                  07184043
.*                                                             @G33VPHD 07186043
         AIF   (&SDSQA EQ 1).MESG12    SQA AND NOSQA IS AN ERROR        07188043
.*                                                             @G33VPHD 07190043
&SDNSQA  SETB  1                       SET NOSQA INDICATOR              07192043
.*                                                             @G33VPHD 07194043
         AGO   .LOOPA2                 CONTINUE LOOP                    07196043
.*                                                             @G33VPHD 07198043
.SETNAPA ANOP                          NOALLPSA OR NOALL SPECIFIED      07200043
.*                                                             @G33VPHD 07205043
         AIF   (&SDALPSA EQ 1).MESG13  NOALLPSA AND ALLPSA IS ERROR     07210043
.*                                                             @G33VPHD 07215043
&SDNAPSA SETB  1                       SET NOALLPSA INDICATOR           07220043
.*                                                             @G33VPHD 07225043
         AGO   .LOOPA2                 CONTINUE LOOP                    07230043
.*                                                             @G33VPHD 07235043
         AGO   .LOOPA2                 CONTINUE LOOP                    07240043
.SD80    ANOP         ALL SDATA OPTIONS PROCESSED,BUILD SDATA  @G33VPHD 07286043
&SDATAF1 SETA  128*&SDALPSA+64*&SDPSA+32*&SDNUC+16*&SDSQA+8*&SDLSQA+4*&X07300002
               SDRGN+2*&SDLPA+1*&SDTRT                                  07350002
&SDATAF2 SETA  128*&SDCSA+64*&SDSWA+32*&SDSMDMP+16*&SDNSMDP+8*&SDNAPSA+X07370043
               4*&SDNSQA                                                07400043
.*                                                             @G33VPHD 07430043
.*                                                                      07500002
.*       WHICH FORM OF MACRO                                            07550002
.*                                                                      07600002
         AIF   ('&MF' EQ '').STFORM          IS IT STANDARD FORM        07650002
         AIF   ('&MF' EQ 'L').LSTFORM        IS IT LIST FORM            07700002
         AIF   ('&MF'(1,3) NE '(E,').MESG7   ELSE, IF NOT EXECUTE, ERR  07750002
.*                                                                      07800002
.*       EXECUTE FORM OF MACRO                                          07850002
.*                                                                      07900002
         AIF   ('&NAME' EQ '').SDEX2        IS NAME SPECIFIED           07950002
&NAME    DS    0H                                                       08000002
.SDEX2   ANOP                                                           08050002
         IHBSETR   &MF(2),1                 LOAD REG 1 WITH LIST ADDR   08100002
         AIF   ('&QUIESCE' NE '').SDEX3     IS QUIESCE SPECIFIED        08110002
&SDFLAG0 SETA  &SDFLAG0-2                   NO, LEAVE AS SPECIFIED ON L 08120002
.SDEX3   AIF   ('&SDFLAG0' EQ '0').SDEX3A   ANY OPTIONS TO TURN ON      08130002
         OI    0(1),&SDFLAG0                SET OPTION FLAGS            08150002
.SDEX3A  AIF   ('&BUFFER' EQ 'NO').SDEX4    BUFFER NOT REQUESTED        08160002
         AGO   .SDEX6                       GO CHECK FOR QUIESCE        08170002
.SDEX4   ANOP                                                           08180002
         NI    0(1),X'BF'                   TURN OFF BUFFER FLAG        08190002
.SDEX6   AIF   ('&QUIESCE' EQ 'NO').SDEX8   QUIESCE NOT REQUESTED       08192002
         AGO   .SDEX10                      GO SET SVC DUMP FLAG        08194002
.SDEX8   ANOP                                                           08196002
         NI    0(1),X'FD'                   TURN OFF QUIESCE FLAG       08198002
.SDEX10  ANOP                                                           08198402
         AIF   ('&SUMLIST' EQ '' AND '&ASIDLST' EQ '').SDEX11  @G33VPHD 08208443
         OI    1(1),&SDFLAG1                 SET OPTION BITS            08218443
.SDEX11  ANOP                                                  @G33VPHD 08228443
         AIF   ('&SDATA' EQ '').SDEX12      IS SDATA OPTIONS SPECIFIED  08250002
         MVI   2(1),&SDATAF1                SET OPTION FLAGS            08300002
         MVI   3(1),&SDATAF2                SET OPTION FLAGS            08350002
.SDEX12  AIF   ('&DCB' EQ '').SDEX15        IS DCB SPECIFIED            08400002
         IHBSETR   &DCB,0                   LOAD REG 0 WITH DCB ADDR    08450002
         ST    0,4(1,0)               ADDR OF DCB INTO PARAM LISTYM1995 08500002
.SDEX15  ANOP                                                           08550002
         AIF   ('&LIST' EQ '').SDEX20       IS LIST SPECIFIED           08600002
         IHBSETR   &LIST,0                  LOAD REG 0 WITH LIST ADDR   08650002
         ST    0,8(1,0)               ADDR OF LIST INTO PARAM LSTYM1995 08700002
         AGO   .SDEX25                      GO CHECK FOR USER DATA      08750002
.SDEX20  AIF   ('&STORAGE' EQ '').SDEX25    IS STORAGE SPECIFIED        08800002
         L     15,8(1,0)    ADDR OF STORAGE LIST FROM PARAM LIST YM1995 08850002
&DISP    SETA  -4                 DISPLACEMENT OF ADDR IN STORAGE LIST  08900002
&CTR1    SETA  N'&STORAGE         NUMBER OF ADDRESSES SPECIFIED         08950002
&CTR2    SETA  0                  POSITION NUMBER OF ADDR WORKING ON    09000002
.LOOPC1  ANOP                                                           09050002
&DISP    SETA  &DISP+4                 DISP OF NEXT ADDR IN STORAGE LST 09100002
&CTR2    SETA  &CTR2+1                 POSITION NUMBER OF NEXT ADDRESS  09150002
         IHBSETR   &STORAGE(&CTR2),0   PUT STORAGE ADDRESS IN REG 0     09200002
         ST    0,&DISP.(0,15)          STORAGE ADDR INTO STORAGE LIST   09250002
&CTR1    SETA  &CTR1-1                 NUMBER OF REMAINING ADDRESSES    09300002
         AIF   (&CTR1 NE 0).LOOPC1   ANY MORE ADDRESSES                 09350002
         OI    &DISP.(15),X'80'      SET END OF LIST INDICATOR          09400002
.SDEX25  AIF   ('&HDRAD' EQ '').SDEX30      IS HDRAD SPECIFIED          09450002
         IHBSETR   &HDRAD,0                 LOAD REG0 WITH HDR RCD ADDR 09500002
         ST    0,12(1,0)              ADDR OF USER DATA INTO LISTYM1995 09550002
         AGO   .SDEX35                      GO CHECK FOR ECB            09600002
.SDEX30  AIF   ('&HDR' EQ '').SDEX35        IS HDR SPECIFIED            09650002
&GNAME   SETC  'IHB'.'&SYSNDX'              GET A UNIQUE SYMBOL         09700002
         BAL   15,&GNAME                    BRANCH AROUND USER DATA     09750002
&CTR1    SETA  K'&HDR-2-&HDRCTR             LENGTH OF USER DATA         09800002
         DC    AL1(&CTR1)                   LENGTH OF USER DATA         09850002
         DC    C&HDR                        USER DATA                   09860002
         CNOP  2,4                                                      09900002
&GNAME   DS    0H                                                       09950002
         ST    15,12(1,0)             ADDR OF USER DATA INTO LISTYM1995 10000002
.SDEX35  AIF   ('&ECB' EQ '').SDEX40        IS ECB SPECIFIED            10050002
         AIF   ('&ECB'(1,1) EQ '(').SDEX37  IS ADDR OF ECB IN A REG     10100002
         L     15,&ECB                      ADDRESS OF ECB              10150002
         ST    15,16(1,0)             ADDR OF ECB INTO PARAM LISTYM1995 10200002
         AGO   .SDEX40                      GO CHECK FOR ASID           10250002
.SDEX37  ANOP                                                           10300002
         ST    &ECB,16(1,0)           ADDR OF ECB INTO PARAM LISTYM1995 10350002
.SDEX40  AIF   ('&ASID' EQ '').SDEX45       IS ASID SPECIFIED           10400002
         AIF   ('&ASID'(1,1) EQ '(').SDEX42 IS ASID IN A REGISTER       10450002
         LH    0,&ASID                      ASID OF MEMORY TO BE DUMPED 10500002
         STH   0,22(1,0)              ASID INTO PARAMETER LIST   YM1995 10550002
         AGO   .SDEX47                      GO CHECK FOR SUMLIST        10570043
.*                                                             @G33VPHD 10600043
.SDEX42  ANOP                                                           10650002
         STH   &ASID,22(1,0)          ASID INTO PARAMETER LIST   YM1995 10700002
         AGO   .SDEX47                      GO CHECK FOR SUMLIST        10703043
.*                                                             @ZA39011 10706043
.SDEX45  AIF   ('&ASIDLST' EQ '').SDEX47 IF ASIDLIST SPECIFIED          10709043
.*                                                             @G33VPHD 10712043
         IHBSETR   &ASIDLST,0           LOAD REG 0 WITH ASIDLIST ADDR   10715043
.*                                                             @G33VPHD 10718043
         ST    0,24(1)                  ADDR ASIDLIST INTO PARM LIST    10721043
.*                                                             @G33VPHD 10724043
.SDEX47  AIF   ('&SUMLIST' EQ '').SDEX49 IF SUMLIST IS SPECIFIED        10727043
.*                                                             @G33VPHD 10730043
         AIF   (&SDNSMDP EQ 1).MESG14 SUMLIST WITH NOSUMDUMP ERROR      10731043
.*                                                             @ZA39011 10732043
         IHBSETR   &SUMLIST,0           LOAD REG 0 WITH SUMLIST ADDR    10733043
.*                                                             @G33VPHD 10736043
         ST    0,28(1)                  ADDR SUMLIST INTO PARM LIST     10739043
.*                                                             @G33VPHD 10742043
.SDEX49  AIF   ('&BRANCH' EQ 'YES').SDEX50  IS BRANCH ENTRY REQUESTED   10745043
         SVC   51                           INVOKE SVC DUMP VIA SVC     10800002
         AGO   .SDEND                       GO END MACRO PROCESSING     10850002
.SDEX50  ANOP                                                           10900002
         L     15,CVTPTR(0,0)               ADDRESS OF CVT       YM1995 10950002
         L     15,CVTSDMP-CVTMAP(15,0)  ADDRESS OF SVC DUMP ENTRYYM1995 11000002
         BALR  14,15                        INVOKE SVC DUMP VIA BAL     11050002
         AGO   .SDEND                       GO END MACRO PROCESSING     11100002
.*                                                                      11150002
.*       LIST FORM OF MACRO                                             11200002
.*                                                                      11250002
.LSTFORM ANOP                                                           11260002
&NAME    DS    0F                           SDUMP PARAMETER LIST        11300002