         MACRO                                                          00020000
&NAME    SEGWT &EXN                                                     00040000
         AIF   ('&EXN' EQ '').E1                                        00060000
         AIF   ('&EXN'(1,1) EQ '(').E2                                  00080000
         CNOP  0,4                                                      00100000
&NAME    B     *+8                               BRANCH AROUND VCON     00120000
         DC    V(&EXN)                           EXTERNAL NAME          00140000
         L     1,*-4                             LOAD EXTERNAL ADDRESS  00160000
         LA    0,1(0,0)                          INDICATE SEGWT         00180000
         SVC   37                                ISSUE SEGWT SVC        00200000
         MEXIT                                                          00220000
.E1      IHBERMAC 01                                                    00240000
         MEXIT                                                          00260000
.E2      IHBERMAC 36,,&EXN                                              00280000
         MEND                                                           00300000
