         MACRO                                                          02000020
&NAME    SEQUENCE &BLANK=YES                                            04000020
         GBLA  &IEDQZE(64)                                              06000020
         GBLB  &IEDQZA(64)                                              08000020
.*             VERSION DATED AUGUST 21, 1970                            10000020
         SPACE                                                          12000020
         AIF   (NOT &IEDQZA(9)).TSOCHK                              TSO 14000020
         MNOTE 12,'***  IHB312  MUST FOLLOW STARTMH MACRO WITH TSOMH=NO*16000020
               '                                                        18000020
         AGO   .MEND                                                TSO 20000020
.TSOCHK  AIF   (&IEDQZA(3) OR &IEDQZA(4)).OK                            23000020
         MNOTE 12,'***  IHB070  SEQUENCE ERROR-MUST FOLLOW INHDR OR OUT*26000020
               HDR MACRO'                                               28000020
         AGO   .MEND                                                    30000020
.OK      AIF   ('&NAME' EQ '').NON                                      32000020
&NAME    DS    0H                                                       34000020
.NON     AIF   (&IEDQZA(4)).OUTSEQ                                      36000020
         IEDQVCON 26,IEDQAH                                             38000020
&IEDQZA(8) SETB 1                                                       40000020
         CNOP  0,4                                                      41000020
         IEDQSCAN 255,,&BLANK                                           42000020
&IEDQZA(8) SETB 0                                                       44000020
         AIF   (&IEDQZA(24)).MEND                                       46000020
         LTR   15,15                                                    48000020
         BM    *+16                                                     50000020
         BAL   1,*+6 .                  SKIP AROUND PARMLIST            52000020
         DC    AL1(&IEDQZE(26)),AL1(2)                                  54000020
         AGO   .LOAD                                                    56000020
.OUTSEQ  IEDQVCON (38,27),(IEDQAF,IEDQAD)                               58000020
         BAL   1,*+6                                                    60000020
         DC    AL1(&IEDQZE(27)),AL1(&IEDQZE(38))                        62000020
.LOAD    L     15,IEDUI .               TO SEQUENCE ROUTINE             64000020
         BALR  14,15                                                    66000020
.MEND    SPACE 2                                                        68000020
         MEND                                                           70000020
