         MACRO                                                          02000020
&NAME    SETEOF &CHARS,&BLANK=YES                                       04000020
         GBLA  &IEDQZD                                                  06000020
         GBLB  &IEDQZA(64)                                              08000020
         GBLC  &IEDQZC                                                  10000020
         LCLB  &NOGO                                                    12000020
.*             VERSION DATED OCTOBER 16, 1970                           14000020
         SPACE                                                          16000020
         AIF   (NOT &IEDQZA(9)).TSOCHK                                  18000020
         MNOTE 12,'***  IHB312  MUST FOLLOW STARTMH MACRO WITH TSOMH=NO*20000020
               '                                                        22000020
&NOGO    SETB  1                                                        24000020
.TSOCHK  AIF   (&IEDQZA(4)).CHK                                         26000020
         MNOTE 12,'***  IHB070  SEQUENCE ERROR - MUST FOLLOW OUTHDR MAC*28000020
               RO'                                                      30000020
&NOGO    SETB  1                                                        32000020
.CHK     AIF   ('&CHARS' EQ '').NM                                      34000020
         IEDQCHAR 8,&CHARS                                              36000020
         AIF   (&IEDQZA(24)).ERR                                        38000020
         AIF   (&IEDQZD LE 8).NM                                        40000020
.ERR     MNOTE 12,'***  IHB300  CHARACTER OPERAND INVALID AS SPECIFIED' 42000020
&NOGO    SETB  1                                                        44000020
.NM      AIF   (&NOGO).MEND                                             46000020
         AIF   ('&NAME' EQ '').NON                                      48000020
&NAME    DS    0H                                                       50000020
.NON     AIF   ('&CHARS' EQ '').DOIT                                    52000020
         IEDQSCAN &IEDQZD,&CHARS,&BLANK                                 54000020
         AIF   (&IEDQZA(24)).MEND                                       56000020
         LTR   15,15 .                  TEST RETURN CODE                58000020
         BNP   *+16 .                   NEGATIVE OR ZERO - NO ACTION    60000020
         L     1,IEDADBUF .             GET BUFFER ADDRESS              62000020
         STH   15,24(,1) .              PUT SCAN POINTER IN BUFFER      64000020
         AGO   .OI                                                      66000020
.DOIT    L     1,IEDADBUF .             GET BUFFER ADDRESS              68000020
.OI      OI    20(1),X'04' .            SET EOF INDICATOR ON            70000020
.MEND    SPACE 2                                                        72000020
         MEND                                                           74000020
