         MACRO                                                          00600022
&NAME    SETEOM &ENDCHAR=,&LENGTH=,&PROCESS=NO,&REMOVE=NO,&EOM=  S99238 01200022
         GBLA  &IEDQZE(64),&IEDQZD,&IEDQZK                              01800022
         GBLB  &IEDQZA(64)                                              02400022
         LCLA  &LNGRS,&LNGMSG,&PARMLN,&ADDR,&CH,&CTR                    03000022
         LCLB  &B(8),&QCB                                               03600022
         LCLC  &TEMP,&TLEN,&C                                           04200022
.* CHANGE ACTIVITY AS FOLLOWS                                           04200110
.******************* MICROFICHE FLAGS *********************** SUPT CODE 04200210
.*A 108500                                                       S99238 04200310
.*A 103000                                                      SA57357 04200410
.*C 264000                                                      SA57325 04200510
.*C618000                                                       SA60306 04200610
         AIF   (&IEDQZA(14)).MM                                         04800022
         MNOTE 12,'*** IHB070 SEQUENCE ERROR - MUST BE IN INBLOCK SUBGRX05400022
               OUP'                                                     06000022
         AGO   .END                                                     06600022
.MM      ANOP                                                           07200022
         AIF   (NOT &IEDQZA(35)).BA4                                    07800022
         MNOTE 12,'*** IHB234 SETEOM PREVIOUSLY CODED IN THIS INBLOCK SX08400022
               UBGROUP'                                                 09000022
         AGO   .END                                                     09600022
.BA4     ANOP                                                           10200022
         AIF   (&IEDQZA(48)).BA5                                SA57357 10300022
         MNOTE 12,'*** IED920 LMD=YES NOT CODED ON STARTMH MACRO'       10400022
         AGO   .END                                            SA57357  10500022
.BA5     ANOP                                                  SA57357  10600022
&IEDQZA(35) SETB 1                                                      10800022
         AIF   ('&EOM' EQ '').CKEND                              S99238 10850022
&TEMP    SETC  'EOM'                                             S99238 10900022
         AIF   ('&EOM' NE 'ETB').ERR1                            S99238 10950022
&B(7)    SETB  1                                                 S99238 11000022
         AIF   ('&ENDCHAR' NE '' OR '&LENGTH' NE '').ERR2        S99238 11050022
         AIF   ('&PROCESS' NE 'YES').ERR2                        S99238 11100022
         AIF   ('&REMOVE' EQ 'NO').CKPRO                         S99238 11150022
.ERR2    MNOTE 12,'*** IHB066 INCONSITENT OPERANDS SPECIFIED'    S99238 11200022
         AGO   .END                                              S99238 11250022
.CKEND   ANOP                                                    S99238 11300022
         AIF   ('&ENDCHAR' EQ '').CKLNG                                 11400022
&TEMP    SETC  'ENDCHAR'                                                12000022
.LOOP    ANOP                                                           12600022
&CTR     SETA  &CTR+1                                                   13200022
         AIF   ('&ENDCHAR'(&CTR,1) EQ ' ').ERR1                         13800022
         AIF   (&CTR LT K'&ENDCHAR).LOOP                                14400022
&B(1)    SETB  1                                                        15000022
         AIF   ('&ENDCHAR'(1,2) NE 'C''').CKRS1                         15600022
         AIF   ('&ENDCHAR'(K'&ENDCHAR,1) NE '''' OR K'&ENDCHAR GT      X16200022
               11).ERR1                                                 16800022
&LNGRS   SETA  (K'&ENDCHAR-3)                                           17400022
         AGO   .CKLNG                                                   18000022
.CKRS1   AIF   ('&ENDCHAR'(1,2) NE 'CL').CKRS2                          18600022
         AIF   ('&ENDCHAR'(4,1) NE '''' OR '&ENDCHAR'(K'&ENDCHAR,1) NE X19200022
               '''').OPFD1                                              19800022
&C       SETC  '&ENDCHAR'(3,1)                                          20400022
&CH      SETA  &C                                                       21000022
         AIF   (K'&ENDCHAR GT 13 OR &CH NE (K'&ENDCHAR-5)).ERR1         21600022
&LNGRS   SETA  (K'&ENDCHAR-5)                                           22200022
         AGO   .CKLNG                                                   22800022
.CKRS2   AIF   ('&ENDCHAR'(1,2) NE 'X''').CKRS3                         23400022
         AIF   ('&ENDCHAR'(K'&ENDCHAR,1) NE '''' OR K'&ENDCHAR GT      X24000022
               19).ERR1                                                 24600022
&LNGRS   SETA  ((K'&ENDCHAR-3)/2)                                       25200022
         AGO   .CKLNG                                                   25800022
.CKRS3   AIF   ('&ENDCHAR'(1,2) NE 'XL').OPFD1                          26400022
         AIF   ('&ENDCHAR'(4,1) NE '''' OR '&ENDCHAR'(K'&ENDCHAR,1) NE X27000022
               '''').OPFD1                                              27600022
&C       SETC  '&ENDCHAR'(3,1)                                          28200022
&CH      SETA  &C                                                       28800022
&CH      SETA  (&CH*2)                                                  29400022
         AIF   (K'&ENDCHAR GT 21 OR &CH NE (K'&ENDCHAR-5)).ERR1         30000022
&LNGRS   SETA  ((K'&ENDCHAR-5)/2)                                       30600022
         AGO   .CKLNG                                                   31200022
.OPFD1   ANOP                                                           31800022
&B(2)    SETB  1                                                        32400022
         AIF   (K'&ENDCHAR LE 8).CKLNG                                  33000022
.ERR1    MNOTE 12,'*** IHB300 INVALID &TEMP   OPERAND SPECIFIED'        33600022
         AGO   .END                                                     34200022
.CKLNG   AIF   ('&LENGTH' NE '').CONLNG                                 34800022
         AIF   (&B(1)).CKPRO                                            35400022
         MNOTE 12,'*** IHB001 REQUIRED OPERAND MISSING'                 36000022
         AGO   .END                                                     36600022
.CONLNG  ANOP                                                           37200022
         AIF   (N'&LENGTH EQ 2).TWOOP                                   37300022
&TEMP    SETC  'LENGTH'                                                 37400022
         AGO   .ERR1                                                    37500022
.TWOOP   ANOP                                                           37600022
&B(3)    SETB  1                                                        37800022
&TLEN    SETC  '&LENGTH(1)'(1,1)                                        38400022
         AIF   ('&TLEN' GE '0' AND '&TLEN' LE '9').INT                  39000022
.OPFD2   ANOP                                                           39600022
&B(4)    SETB  1                                                        40200022
         AGO   .OPFD3                                                   40800022
.INT     ANOP                                                           41400022
&TLEN    SETC  '&LENGTH(1)'(1,K'&LENGTH(1))                             42000022
&LNGMSG  SETA  &TLEN                                                    42600022
         AIF   (&LNGMSG GT 0 AND &LNGMSG LT 65536).BA1                  43200022
&TEMP    SETC  'LENGTH'                                                 43800022
         AGO   .ERR1                                                    44400022
.BA1     ANOP                                                           45000022
.OPFD3   ANOP                                                           45600022
.CKPRO   AIF   ('&PROCESS' NE 'YES').PRONO                              46200022
&B(5)    SETB  1                                                        46800022
&QCB     SETB  1                                                        47400022
&PARMLN  SETA  32                                                       48000022
         AGO   .CKREM                                                   48600022
.PRONO   ANOP                                                           49200022
         AIF   ('&PROCESS' EQ 'NO').BA2                                 49800022
&TEMP    SETC  'PROCESS'                                                50400022
         AGO   .ERR1                                                    51000022
.BA2     ANOP                                                           51600022
&PARMLN  SETA  20                                                       52200022
.CKREM   AIF   ('&REMOVE' NE 'YES').EXP                                 52800022
&B(6)    SETB  1                                                        53400022
        AGO   .BA3                                                      54000022
.EXP     ANOP                                                           54600022
         AIF   ('&REMOVE' EQ 'NO').BA3                                  55200022
&TEMP    SETC  'REMOVE'                                                 55800022
         AGO   .ERR1                                                    56400022
.BA3     ANOP                                                           57000022
         IEDQVCON (53,16),(IEDQBO,IEDQAO)                               57600022
         IEDQVCON  55,IEDQBN                                            58200022
         AIF   (NOT &B(3)).NOTLEN                                       58800022
         IEDQVCON  54,IEDQBR                                            59400022
.NOTLEN  ANOP                                                           60000022
         IEDQVCON (31,38),(IEDQAE,IEDQAF)                               60600022
         CNOP  0,4                                                      61200022
&NAME    BAL   1,*+4+&PARMLN                                    SA60306 61800010
         DC    AL1(&IEDQZE(53)),AL1(&PARMLN)                            62400022
         DC    BL1'&B(8)&B(7)&B(6)&B(5)&B(4)&B(3)&B(2)&B(1)'            63000022
         DC    AL1(&IEDQZE(31))                                         63600022
         DC    AL1(&IEDQZE(55)),AL1(&IEDQZE(54))                        64200022
         DC    AL1(&IEDQZE(38)),AL1(&IEDQZE(16))                        64800022
         DC    AL4(0) .                 HOLD QCB                        65400022
.SKIP2   AIF   (NOT &B(3)).DC4                                          66000022
         AIF   (&B(4)).DC3                                              66600022
         DC    AL2(&LNGMSG),AL1(&LENGTH(2)),AL1(0)                      67200022
         AGO   .SKIP3                                                   67800022
.DC3     DC    AL1(0),AL1(&LENGTH(1)),AL1(&LENGTH(2)),AL1(0)            68400022
         AGO   .SKIP3                                                   69000022
.DC4     DC    AL4(0)                                                   69600022
.SKIP3   AIF   (NOT &B(1)).BB                                           70200022
         AIF   (&B(2)).SKIP4                                            70800022
         IEDQCHAR 8,&ENDCHAR                                            71400022
         AIF   (NOT &IEDQZA(24)).SKIP5                                  72000022
&TEMP    SETC  'ENDCHAR'                                                72600022
         AGO   .ERR1                                                    73200022
.SKIP5   AIF   (&IEDQZD LE 8).SKIP6                                     73800022
&TEMP    SETC  'ENDCHAR'                                                74400022
         AGO   .ERR1                                                    75000022
.SKIP6   ANOP                                                           75600022
&C       SETC  '&SYSECT'                                                76200022
IEDQMISC CSECT                                                          76800022
         DC    AL1(&IEDQZD),&ENDCHAR                                    77400022
&C       CSECT                                                          78000022
         DC    AL1(&IEDQZD),AL3(IEDQMISC+&IEDQZK)                       78600022
&IEDQZK  SETA  &IEDQZK+&IEDQZD+1                                        79200022
         AGO   .AA                                                      79800022
.SKIP4   DC    AL1(&ENDCHAR),AL3(0)                                     80400022
         AGO   .AA                                                      81000022
.BB      DC    AL4(0)                                                   81600022
.AA      ANOP                                                           82200022
         AIF   (NOT (&QCB)).SKIP7                                       82800022
         DC    3AL4(0) .                QCB                             83400022
.SKIP7   L     15,IEDUI                                                 84000022
         BALR  14,15                                                    84600022
         LR    15,1                     RETURN CODE                     84900022
.END     SPACE 2                                                        85200022
         MEND                                                           85800022
