         MACRO                                                          00020000
&NAME    SETL  &DCB,&TYPE,&LL                                           00040000
         LCLB  &B(7)                                                    00060019
         LCLA  &CTR                                                     00080000
         LCLC  &A                                                       00100000
         AIF   ('&DCB' EQ '').E1                                        00120000
         AIF   ('&TYPE' EQ '').E2                                       00140000
         AIF   ('&LL' EQ '' AND '&TYPE'(1,1) NE 'B').E3                 00160000
&NAME    IHBINNRA &DCB,&LL                                              00180000
&A       SETC  '&TYPE'                                                  00200000
&B(1)    SETB  ('&A' EQ 'K' OR '&A' EQ 'KD' OR '&A' EQ 'KX' OR '&A' EQ X00220000
               'KDX' OR '&A' EQ 'KCD' OR '&A' EQ 'KCX' OR '&A' EQ 'KCDXX00240000
               ' OR '&A' EQ 'KC')                                       00260000
&B(1)    SETB  (&B(1) OR '&A' EQ 'KH' OR '&A' EQ 'KDH' OR '&A' EQ 'KXH'X00265019
                OR '&A' EQ 'KDXH' OR '&A' EQ 'KCDH' OR '&A' EQ 'KCXH' OX00270019
               R '&A' EQ 'KCDXH' OR '&A' EQ 'KCH')                      00275019
&B(2)    SETB  ('&A' EQ 'KCD' OR '&A' EQ 'KCX' OR '&A' EQ 'KCDX')       00280000
&B(2)    SETB  (&B(2) OR '&A' EQ 'KC')                                  00300000
&B(2)    SETB  (&B(2) OR '&A' EQ 'KCDH' OR '&A' EQ 'KCXH' OR '&A' EQ 'KX00306019
               CDXH' OR '&A' EQ 'KCH')                                  00312019
&B(3)    SETB  ('&A' EQ 'I' OR '&A' EQ 'ID' OR '&A' EQ 'IX' OR '&A' EQ X00320000
               'IDX')                                                   00340000
&B(4)    SETB  ('&A' EQ 'B' OR '&A' EQ 'BD' OR '&A' EQ 'BX' OR '&A' EQ X00360000
               'BDX')                                                   00380000
&B(5)    SETB  ('&A' EQ 'KD' OR '&A' EQ 'KDX' OR '&A' EQ 'KCD' OR '&A' X00400000
               EQ 'KCDX' OR '&A' EQ 'ID' OR '&A' EQ 'IDX' OR '&A' EQ 'BX00420000
               D' OR '&A' EQ 'BDX')                                     00440000
&B(5)    SETB  (&B(5) OR '&A' EQ 'KDH' OR '&A' EQ 'KDXH' OR '&A' EQ 'KCX00446019
               DH' OR '&A' EQ  'KCDXH')                                 00452019
&B(6)    SETB  ('&A' EQ 'KX' OR '&A' EQ 'KDX' OR '&A' EQ 'KCX' OR '&A' X00460000
               EQ 'KCDX' OR '&A' EQ 'IX' OR '&A' EQ 'IDX' OR '&A' EQ 'BX00480000
               X' OR '&A' EQ 'BDX')                                     00500000
&B(6)    SETB  (&B(6) OR '&A' EQ 'KXH' OR '&A' EQ 'KDXH' OR '&A' EQ 'KCX00503019
               XH' OR '&A' EQ 'KCDXH')                                  00506019
&B(7)    SETB  ('&A' EQ 'KH' OR '&A' EQ 'KDH' OR '&A' EQ 'KCH' OR '&A' X00509019
               EQ 'KCDH' OR '&A' EQ 'KXH' OR '&A' EQ 'KDXH' OR '&A' EQ X00512019
               'KCXH' OR '&A' EQ 'KCDXH')                               00515019
&CTR     SETA  128*&B(1)+64*&B(2)+32*&B(3)+16*&B(4)+8*&B(5)+4*&B(6)     00520000
&CTR     SETA  &CTR+2*&B(7)                                             00530019
         AIF   (&CTR EQ 0).E4                                           00540000
         AIF   (&B(2) AND &B(7)).E4     C AND H INVALID COMB            00550019
         AIF   (&B(4)).EASY                                             00560000
         LA    14,&CTR                       PICK UP TYPE BYTE          00580019
         SLL   14,24                         SHIFT TO HI-ORDER BYTE     00600019
         OR    0,14                              PACK IN WITH LOW.LIM.  00620000
         AGO   .FINI                                                    00640000
.EASY    LA    0,&CTR                        PICK UP TYPE BYTE          00660019
         SLL   0,24                          SHIFT TO HI-ORDER BYTE     00680019
.FINI    L     15,76(0,1)                    LOAD SETL RTN ADDR         00700019
         BALR  14,15                             LINK TO SETL ROUTINE   00720000
         MEXIT                                                          00740000
.E1      IHBERMAC 6                                                     00760000
         MEXIT                                                          00780000
.E2      IHBERMAC 25                                                    00800000
         MEXIT                                                          00820000
.E3      IHBERMAC 10                                                    00840000
         MEXIT                                                          00860000
.E4      IHBERMAC 48,,&TYPE                                             00880000
         MEND                                                           00900000
