         MACRO                                                          04000020
&NAME    SIMATTN                                                        08000020
         GBLA  &IEDQZE(64)                                              12000020
         GBLB  &IEDQZA(64)                                              16000020
.*             VERSION DATED NOVEMBER 11, 1969                          20000020
         SPACE                                                          24000020
         AIF   (&IEDQZA(9)).SEQCHK                                      28000020
         MNOTE 12,'***  IHB312  MUST FOLLOW STARTMH WITH TSOMH=YES'     32000020
         AGO   .MEND                                                    36000020
.SEQCHK  AIF   (&IEDQZA(1) AND NOT &IEDQZA(3) AND NOT &IEDQZA(5)).OK    40000020
         MNOTE 12,'*** IHB070 SEQUENCE ERROR-MUST FOLLOW INBUF MACRO.'  44000020
         AGO   .MEND                                                    48000020
.OK      IEDQVCON 36,IEDAYS                                             52000020
         CNOP  0,4                                                      56000020
&NAME    BAL   1,*+8 .                  BRANCH AROUND PARMLIST          60000020
         DC    AL1(&IEDQZE(36)),AL1(4),H'0'                             64000020
         L     15,IEDUI .               TO SIMATTN ROUTINE              68000020
         BALR  14,15                                                    72000020
.MEND    SPACE 2                                                        76000020
         MEND                                                           80000020
