         MACRO                                                          00050002
&NAME    SPOST &OPERAND                                                 00100002
         AIF   ('&OPERAND' NE '').MNOTE                                 00150002
         L     1,CVTPTR(0,0)         GET ADDR OF CVT           @YM02296 00200002
         L     1,CVTSPOST-CVTMAP(,1) GET ADDR OF PURGEDQ PARM LIST      00250002
         PURGEDQ ,MF=(E,(1))       ISSUE PURGEDQ TO POST RMTR           00300002
         MEXIT                                                          00350002
.MNOTE   ANOP                                                           00400002
         IHBERMAC 1001,SPOST,&OPERAND  INVALID SPOST OPERAND            00450002
         MEXIT                                                          00500002
         MEND                                                           00550002
