         MACRO                                                          00050021
&NAME    STAE  &EXIT,&TYPE,&PARAM=I,&XCTL=NO,&MF=I,&PURGE=,&ASYNCH=,   *00100021
               &TCB=,&RELATED=                                          00150002
         LCLA  &LENGTH                                                  00200021
         LCLA  &FLAGS                                             20049 00250021
         LCLA  &ANDOFF                                            20049 00300021
         LCLA  &A                                                YM1995 00320002
         LCLB  &ASY                                               20049 00350021
         LCLB  &HALT                                              20049 00400021
         LCLB  &NONE                                              20049 00450021
         LCLB  &TCBON                                             20028 00500021
         LCLB  &ASYOFF                                            20049 00550021
         LCLB  &PRGOFF                                            20049 00600021
         LCLC  &GNAME                                                   00650021
         LCLC  &LNAME                                             20049 00700021
         LCLC  &EXITR                                            YM1995 00720002
&ASY     SETB  ('&ASYNCH' EQ 'YES')                               20049 00750021
&HALT    SETB  ('&PURGE' EQ 'HALT')                               20049 00800021
&NONE    SETB  ('&PURGE' EQ 'NONE')                               20049 00850021
&TCBON   SETB  ('&TCB' NE '')                                     20028 00900021
&FLAGS   SETA  128*&TCBON+4*&ASY+2*&NONE+&HALT                          00950021
         AIF   ('&TCB' EQ '').NOSTAI                              20028 01000021
&LENGTH  SETA  16                                                 20028 01050021
         AIF   ('&XCTL' EQ 'NO').NIXXCTL                                01100021
         IHBERMAC 1020,XCTL,TCB                                         01150021
         MEXIT                                                          01200021
.NIXXCTL ANOP                                                           01250021
         AIF   ('&EXIT' EQ '0').ER1                                     01300021
         AIF   ('&TYPE' EQ 'OV').ER2                                    01350021
         AIF   ('&EXIT' EQ '' AND '&MF(1)' EQ 'L').ER3                  01400021
         AGO   .STAI                                                    01450021
.ER1     ANOP                                                           01500021
         IHBERMAC 1020,EXIT/0,TCB                                       01550021
         MEXIT                                                          01600021
.ER2     ANOP                                                           01650021
         IHBERMAC 1020,TYPE/OV,TCB                                      01700021
         MEXIT                                                          01750021
.ER3     ANOP                                                           01800021
         IHBERMAC 1021,EXIT                                             01850021
         MEXIT                                                          01900021
.NOSTAI  ANOP                                                     20028 01950021
&LENGTH  SETA  12                                                 20028 02000021
.STAI    ANOP                                                     20028 02050021
         AIF   ('&ASYNCH' NE '' AND '&ASYNCH' NE 'NO' AND '&ASYNCH' NE C02100021
               'YES').ERRASY                                      20049 02150021
         AIF   ('&PURGE' NE '' AND '&PURGE' NE 'HALT' AND '&PURGE' NE  C02200021
               'NONE' AND '&PURGE' NE 'QUIESCE').PURERR           20049 02250021
         AIF   ('&MF(1)' EQ 'I').IROUT                                  02300021
         AIF   ('&MF(1)' EQ 'L').LROUT                                  02350021
         AIF   ('&MF(1)' EQ 'E').EROUTA                                 02400021
         IHBERMAC 35,,&MF(1)            INVALID MF= OPERAND             02450021
         MEXIT                                                          02500021
.*.*.*.*.*.*.*.*.*.*.*.*.*.*.*.*.*.*.*.*.*.*.*.*.*.*.*.*.*.*.*.*  20049 02550021
.*                                                                20049 02600021
.*       EXECUTE ROUTE       MF=E                                 20049 02650021
.*                                                                20049 02700021
.*.*.*.*.*.*.*.*.*.*.*.*.*.*.*.*.*.*.*.*.*.*.*.*.*.*.*.*.*.*.*.*  20049 02750021
.EROUTA  AIF   (N'&MF GT 2).EXCESSA                                     02800021
.EROUT   AIF   ('&MF(2)' NE '').EXEC                                    02850021
.NOPARM  IHBERMAC 24                    REQ'D. PARMS. MISSING           02900021
         MEXIT                                                          02950021
.EXEC    ANOP                                                           03000021
&ASYOFF  SETB  ('&ASYNCH' EQ 'NO')                                20049 03050021
&PRGOFF  SETB  ('&PURGE' NE '')                                   20049 03100021
&ANDOFF  SETA  255-(4*&ASYOFF+3*&PRGOFF)                          20049 03150021
&NAME    IHBINNRA &MF(2)                LOAD LIST ADDR IN REG 1         03200021
         AIF   ('&EXIT' EQ '').TSTPX                                    03250021
         XC    1(3,1),1(1) .            CLEAR EXIT ADDR. IN LIST        03300021
         AIF   ('&EXIT' EQ '0').TSTPX                             20049 03350021
         AIF   ('&EXIT'(1,1) EQ '(').ST1                                03400021
         IHBINNRA ,&EXIT                LOAD NEW EXIT ADDR IN REG 0     03450021
         O     0,0(1,0) .               OR EXIT ADDR. INTO LIST  YM1995 03500002
         ST    0,0(1,0)                                          YM1995 03550002
         AGO   .TSTPX                                                   03600021
.ST1     ANOP                                                     20049 03650021
&A       SETA  K'&EXIT-2                                         YM1995 03660002
&EXITR   SETC  '&EXIT'(2,&A)                                     YM1995 03670002
         LA    &EXITR,0(&EXITR.,0) .    ADDR OF EXIT ROUTINE     YM1995 03700002
         O     &EXITR,0(1,0) .          OR EXIT ADDR. INTO LIST  YM1995 03750002
         ST    &EXITR,0(1,0)                                     YM1995 03800002
.TSTPX   ANOP                                                     20049 03850021
         AIF   (&ANDOFF EQ 255).TESTOR                            20049 03900021
         NI    0(1),&ANDOFF .           TURN OFF FLAG BITS              03950021
.TESTOR  ANOP                                                     20049 04000021
         AIF   (&FLAGS EQ 0).TSTPX1                               20049 04050021
         OI    0(1),&FLAGS .            FLAGS FOR TCB,                  04100021
*                                       PURGE AND ASYNCH                04150021
.TSTPX1  ANOP                                                     20049 04200021
         AIF   ('&PARAM' EQ 'I').ETSTTCB                          20028 04250021
         AIF   ('&PARAM'(1,1) EQ '(').ST2                               04300021
         IHBINNRA ,&PARAM                                               04350021
         ST    0,4(1,0) .         MODIFY REMOTE LIST - PARM ADDR YM1995 04400002
         AGO   .ETSTTCB                                           20028 04450021
.ST2     ST    &PARAM,4(1,0) .          MODIFY LIST - PARAM ADDR YM1995 04500002
.ETSTTCB AIF   ('&TCB' EQ '').TSTOPT                              20028 04550021
         AIF   ('&TCB'(1,1) EQ '(').ST3                           20028 04600021
         IHBINNRA ,&TCB                                           20028 04650021
         ST    0,8(1,0) .                MODIFY LIST - TCB ADDR. YM1995 04700002
         AGO   .TSTOPT                                            20028 04750021
.ST3     ST    &TCB,8(1,0)     .         MODIFY LIST - TCB ADDR  YM1995 04800002
.TSTOPT  AIF   ('&EXIT' EQ '0').CANCEL                                  04850021
         AGO   .OPTTST                                                  04900021
.EXCESSA MNOTE *,'***     EXCESS PARAMETERS W/MF=E IGNORED'             04950021
         AGO   .EROUT                                                   05000021
.*.*.*.*.*.*.*.*.*.*.*.*.*.*.*.*.*.*.*.*.*.*.*.*.*.*.*.*.*.*.*.*  20049 05050021
.*                                                                20049 05100021
.*       LIST ROUTE          MF=L                                 20049 05150021
.*                                                                20049 05200021
.*.*.*.*.*.*.*.*.*.*.*.*.*.*.*.*.*.*.*.*.*.*.*.*.*.*.*.*.*.*.*.*  20049 05250021
.LROUT   AIF   (N'&MF GT 1).EXCESS                                20028 05300021
.LROUT1  ANOP                                                     20049 05350021
         DS    0F                                                       05400021
&NAME    DC    AL1(&FLAGS) .        FLAGS FOR TCB,                      05450021
*                                   PURGE AND ASYNCH                    05500021
         AIF   ('&EXIT' NE '').LREGA                              20049 05550021
         DC    AL3(0) .             EXIT ADDR. NOT SPECIFIED            05600021
         AGO   .LREGB                                                   05650021
.LREGA   AIF   ('&EXIT'(1,1) EQ '(').LISTERR                            05700021
         DC    AL3(&EXIT) .         STAE EXIT ROUTINE ADDR.             05750021
.LREGB   AIF   ('&PARAM' NE 'I').LREGC                                  05800021
         DC    A(0) .                   PARM. LIST ADDR. NOT SPECIFIED  05850021
         AGO   .LREGD                                             20028 05900021
.LREGC   AIF   ('&PARAM'(1,1) EQ '(').LISTERR                           05950021
         DC    A(&PARAM) .              STAE EXIT PARM. LIST ADDR.      06000021
.LREGD   AIF   ('&TCB' EQ '').LREGE                               20028 06050021
         AIF   ('&TCB'(1,1) EQ '(').LISTERR                       20028 06100021
         DC    A(&TCB)       . TCB ADDRESS                              06150021
         MEXIT                                                          06200021
.LREGE   DC    A(0) .                  TCB NOT SPECIFIED                06250021
         MEXIT                                                          06300021
.EXCESS  MNOTE *,'***     EXCESS PARAMETERS W/MF=L IGNORED'             06350021
         AGO   .LROUT1                                                  06400021
.*.*.*.*.*.*.*.*.*.*.*.*.*.*.*.*.*.*.*.*.*.*.*.*.*.*.*.*.*.*.*.*  20049 06450021
.*                                                                20049 06500021
.*       REGULAR ROUTE       MF=I                                 20049 06550021
.*                                                                20049 06600021
.*.*.*.*.*.*.*.*.*.*.*.*.*.*.*.*.*.*.*.*.*.*.*.*.*.*.*.*.*.*.*.*  20049 06650021
.IROUT   AIF   ('&EXIT' EQ '').NOPARM                                   06700021
         AIF   ('&EXIT' NE '0').STDA                                    06750021
&NAME    DS    0H                                                       06800021
.CANCEL  LA    0,4(0,0)  .              INDICATE CANCEL OPTION   YM1995 06850002
         AGO   .SVC1                                                    06900021
.STDA    CNOP  0,4 .                    ESTAB. FULL WD. BOUND. ALIGN.   06950021
&LNAME   SETC  'IHB'.'&SYSNDX'                                    20049 07000021
&NAME    BAL   1,*+&LENGTH . PUT LIST ADDR IN REG1 AND BR AROUND        07050021
&LNAME   EQU   *                                                        07100021
         AIF   ('&EXIT'(1,1) EQ '(').EREG1                              07150021
         DC    AL1(&FLAGS) .           FLAGS FOR TCB,                   07200021
*                                      PURGE AND ASYNCH                 07250021
         DC    AL3(&EXIT)   .            STAE EXIT ROUTINE ADDR.        07300021
         AGO   .STDB                                                    07350021
.EREG1   DC    A(0) .                  SPACE FOR STAE EXIT RTN ADDRESS  07400021
.STDB    ANOP                                                     20049 07450021
         AIF   ('&PARAM' EQ 'I' OR '&PARAM'(1,1) EQ '(').STDC1          07500021
         DC    A(&PARAM) .              STAE EXIT PARM. LIST ADDR.      07550021
         AGO   .TCBTST                                            20028 07600021
.STDC1   DC    A(0) .                  SPACE FOR PARM LIST ADDR         07650021
.TCBTST  AIF   ('&TCB' EQ '').TSTSW                               20028 07700021
         AIF   ('&TCB'(1,1) EQ '(').TCBREG                        20028 07750021
         DC    A(&TCB)      .                    TCB ADDR               07800021
         AGO   .TSTSW                                             20028 07850021
.TCBREG  DC    A(0) .                  SPACE FOR TCB ADDR               07900021
         ST    &TCB,&LNAME+8       .  PUT TCB ADDR IN LIST              07950021
.TSTSW   ANOP                                                     20049 08000021
         AIF   ('&EXIT'(1,1) NE '(').CHKPARM                      20049 08050021
         ST    &EXIT,&LNAME .          PUT EXIT ADDR. IN LIST           08100021
         MVI   &LNAME,&FLAGS .         PUT IN FLAGS FOR TCB,            08150021
*                                      PURGE AND ASYNCH                 08200021
.CHKPARM ANOP                                                     20049 08250021
         AIF   ('&PARAM'(1,1) NE '(').OPTTST                      20028 08300021
         ST    &PARAM,&LNAME+4 . PUT PARAM ADDR. IN LIST                08350021
.*.*.*.*.*.*.*.*.*.*.*.*.*.*.*.*.*.*.*.*.*.*.*.*.*.*.*.*.*.*.*.*  20049 08400021
.*                                                                20049 08450021
.*       COMMON TO E ROUTE AND I ROUTE                            20049 08500021
.*                                                                20049 08550021
.*.*.*.*.*.*.*.*.*.*.*.*.*.*.*.*.*.*.*.*.*.*.*.*.*.*.*.*.*.*.*.*  20049 08600021
.OPTTST  AIF   (('&TCB' NE '') AND ('&TYPE' EQ 'OV')).BADOPT      20028 08650021
         AIF   (('&TYPE' EQ '') OR ('&TYPE' EQ 'CT')).CREATE      20028 08700021
         AIF   ('&TYPE' EQ 'OV').OVRLAY                                 08750021
.BADOPT  IHBERMAC  49,,&TYPE           INVALID OPTION-STD. FORM   20028 08800021
         MEXIT                                                          08850021
.CREATE  ANOP                                                     20049 08900021
         SR    0,0 .                   INDICATE CREATE OPTION           08950021
         AGO   .SVC                                                     09000021
.OVRLAY  LA    0,8(0,0)  .             INDICATE OVERLAY OPTION   YM1995 09050002
.SVC     AIF   ('&XCTL' EQ 'NO').NOXCTL                                 09100021
         AIF   ('&XCTL' NE 'YES').BADXCTL                               09150021
         AIF   ('&TCB' NE '').SVC1                               YM2149 09160002
&GNAME   SETC  'IHB'.'&SYSNDX'.'A'                                20049 09200002
         CNOP  0,4 .                   FORCE FULL WORD ALIGNMENT        09250021
         O     1,&GNAME .              XCTL=YES - MAKE REG 1 NEGATIVE   09300021
         B     *+8 .                   BRANCH AROUND CONSTANT           09350021
&GNAME   DC    X'80000000' .           MASK TO SET REG 1 NEGATIVE       09400021
.SVC1    SVC   60 .                    ISSUE STAE SVC                   09450021
         MEXIT                                                          09500021
.NOXCTL  ANOP                                                     20049 09550021
         AIF   ('&MF(1)' EQ 'E' AND 'MF(2)' NE '1').SVC1          20049 09600021
         LA    1,0(1,0) .               MAKE REG1 POS.  XCTL=NO  YM1995 09650002
         AGO   .SVC1                                                    09700021
.BADXCTL MNOTE 8,'***     XCTL=&XCTL - PARAMETER INVALID'               09750021
         MEXIT                                                          09800021
.LISTERR IHBERMAC 69                    REG NOTE W/MF=L - INVALID       09850021
         MEXIT                                                    20049 09900021
.ERRASY  ANOP                                                     20049 09950021
         IHBERMAC  54,,&ASYNCH                                    20049 10000021
         MEXIT                                                    20049 10050021
.PURERR  ANOP                                                     20049 10100021
         IHBERMAC  54,,&PURGE                                     20049 10150021
         MEND                                                     20049 10200021
