         MACRO                                                          00400020
&NAME    STARTMH &STOP=,&CONT=,&CONV=,&LOGICAL=,&TSOMH=NO,&BREG=1,     *00800008
               &LMD=,&ALTMH=,&LC=OUT,&LU=NO,&BEXIT=(0,0),      @ZM47814*00900010
               &DFC=PARTIAL,&MH=USER                           @Y17XAMN 00950000
         GBLA  &IEDQZE(64),&IEDNCT                             @Y17XAMN 01200000
         GBLB  &IEDQZA(64),&IEDQRN(8),&IEDQMHF(64)             @Y17XAMN 01600000
         GBLC  &IEDQZB,&IEDQZC,&IEDQZG,&IEDQZH,&IEDQZI,&IEDQZJ          02000020
         GBLC  &IEDQZ1,&IEDQSV1(50)                            @Y17XAMN 02200000
         LCLA  &LEN,&IX,&T,&R,&OP(11),&X(10),&LMDB               S22025 02400022
         LCLB  &FLG(8),&NOGO,&FLG0(8),&LUIND                   @Y17XAMN 02800000
         LCLC  &C,&B(3),&G,&H                                  @Y17XANQ 03000000
.*A046000,058000,060400-063200,710000                            S22029 03220022
.*C009000,039200,457000-462000                                   S22029 03240022
.*D094000,452000-456000,548000                                   S22029 03245022
.*D212400                                                       SA55404 03250022
.*D408000                                                        S22029 03260022
.*C032000,496000,500000,508000,512000                            S22026 03300022
.*A492500-494500,500500                                          S22026 03400022
.*C036000,388000                                                 CLUP21 03600021
.*A212000,260000                                                 S22025 03800022
.*C524000,644000,540000,544000,584000,592000                     S22025 03860022
.*D348000-356000                                                SA51768 03870022
.*A344000                                                       SA51768 03880022
.*A020000,696000                                                SA51769 03890022
.*A214060-214120                                                SA57357 03920004
.*C039600,212320,213700                                         SA57357 03926004
.*D039200                                                       SA57357 03932022
.*C039200,262000                                                SA55926 03940022
.*C008000-009000,039600                                          X03039 03950008
.*A542000,544000                                               @YA09290 03960009
.*A009000,039600,060000,448000                                 @Y17XAMN 03966000
.*C009000,012000,016000,022000,028000,032000                   @Y17XAMN 03972000
.*A060288,452200,452800                                        @Y17XANQ 03973000
.*C009000,060056,060140,060316,061200,061600,062400,452600     @Y17XANQ 03974000
.*D010000,039800,060004,060052,060136,060292-060300,060340     @Y17XANQ 03975000
.*D062000,063200,212000,230000,453000-457000,480000-492000     @Y17XANQ 03976000
.*       &IEDQZA(9) - BIT SET FOR TIME SHARING MH                   TSO 04000020
.*       &IEDQZG - SAVES NAME OF STARTMH MACRO FOR LOGON            TSO 04400020
.*       &IEDQZH - SAVES &BREG= VALUE FOR LOGON                  S22029 04600022
         SPACE                                                          04800020
&IEDQZI  SETC  ''                                                   TSO 05200020
&IEDQZH  SETC  ''                                                   TSO 05600020
&IEDQZG  SETC  '&NAME'                                           S22029 05800022
&IEDQZA(9) SETB 0                                                       06000020
&IEDQZA(30) SETB 0                                             @Y17XAMN 06000800
&IEDQZA(32) SETB 0                                             @Y17XAMN 06001200
.* IF THIS IS A 3705 SYSTEM, CHECK AND  SETUP FOR MH=SSCP      @Y17XAMN 06001600
.* OR MH=TOTE OR MH=USER.                                      @Y17XAMN 06002000
         AIF   (NOT &IEDQRN(1)).MH3705  3705 SYSTEM?           @Y17XAMN 06002400
         AIF   ('&MH' NE 'SSCP').MHTOT  YES, MH=SSCP           @Y17XAMN 06002800
         AIF   ('&STOP' NE '' OR '&CONT' NE '' OR '&CONV' NE '' OR '&LOG06003200
               GICAL' NE '' OR '&LMD' NE '' OR '&ALTMH' NE '' OR '&BEXIT06003600
               T(1)' NE '0' OR '&BEXIT(2)' NE '0' ).MHSSCE     @ZM47814 06004010
         AIF   ('&LU' NE 'NO').MHSSCE                          @ZM47814 06004110
         AIF   ('&DFC' EQ 'PARTIAL' AND '&TSOMH' EQ 'NO' AND '&LC' EQ 'O06004400
               OUT').MHSSC                                     @Y17XAMN 06004800
.MHSSCE  MNOTE 12,'*** IED800 UNNECESSARY OPERANDS HAVE BEEN CODED WITH*06005600
                THE MH OPERAND,OPERANDS IGNORED.'              @Y17XANQ 06006000
&NOGO    SETB  1                        SET NOGO SWITCH        @Y17XAMN 06006400
.MHSSC   ANOP                                                  @Y17XAMN 06006800
&IEDQZA(30)    SETB 1                   SET SSCPMH INDICATER   @Y17XAMN 06007200
         AIF   (NOT &IEDQZA(40)).MHSSCG                        @Y17XAMN 06007600
         MNOTE 12,'*** IED801 SSCP MH ALREADY CODED.'          @Y17XAMN 06008000
&NOGO    SETB  1                        SET NOGO SWITCH        @Y17XAMN 06008400
         AGO   .MHDFCF                  NOW CHECK DFC OPERAND  @Y17XAMN 06008800
.MHSSCG  ANOP                                                  @Y17XAMN 06009200
&IEDQZA(40) SETB 1                      SET SSCP GEN INDICATOR @Y17XAMN 06009600
         AGO   .MHDFCF                  NOW CHECK DFC OPERAND  @Y17XAMN 06010000
.MHTOT   AIF   ('&MH' NE 'TOTE').MHUSER                        @Y17XAMN 06010400
         AIF   ('&IEDNCT' NE '0').MHMOR TOTE MH REQUESTED?     @Y17XAMN 06010800
         MNOTE 12,'*** IED802 TOTE MH NOT REQUIRED.'           @Y17XAMN 06011200
&NOGO    SETB  1                        SET NOGO SWITCH                 06011600
.MHMOR   AIF   ('&STOP' NE '' OR '&CONT' NE '' OR '&CONV' NE '' OR '&LOG06012000
               GICAL' NE '' OR '&LMD' NE '' OR '&ALTMH' NE '' OR '&DFC'*06012400
                NE 'PARTIAL').MHINDE                           @Y17XAMN 06012800
         AIF   ('&TSOMH' EQ 'NO' AND '&LC' EQ 'OUT').MHIND     @Y17XAMN 06013200
.MHINDE  MNOTE 12,'*** IED800 UNNECESSARY OPERANDS HAVE BEEN CODED WITH*06014000
                THE MH OPERAND, OPERANDS IGNORED.'             @Y17XANQ 06014400
&NOGO    SETB  1                        SET NOGO SWITCH        @Y17XAMN 06014800
.MHIND   ANOP                                                  @Y17XAMN 06015200
&IEDQZA(32) SETB 1                      SET TOTE MH IND        @Y17XAMN 06015600
         AIF   (&IEDQZA(64)).MHTOTG                            @Y17XAMN 06016000
&IEDQZA(64) SETB 1                      SET TOTE GEN IND       @Y17XAMN 06016400
         AGO   .MHDFCT                                         @YM08079 06016800
.MHTOTG  MNOTE 12,'*** IED808 TOTE MH ALREADY CODED.'          @Y17XAMN 06017200
&NOGO    SETB  1                        SET NOGO SWITCH        @Y17XAMN 06017600
         AGO   .MHDFCT                  NOW SET DFC OPERAND    @YM08079 06018000
.MHUSER  AIF   ('&MH' EQ 'USER').MHSSMH                        @Y17XAMN 06018400
         MNOTE 4,'*** IED803 INVALID MH OPERAND,DEFAULT USED.' @Y17XAMN 06018800
.MHSSMH  AIF   (&IEDQZA(40)).MHTTMH     SSCP GEN ON?           @Y17XAMN 06019200
         AIF   (&IEDQMHF(1)).MHTTMH     SSCP MSG IND ON?       @Y17XAMN 06019600
         MNOTE 8,'*** IED804 SSCP MH REQUIRED.'                @Y17XAMN 06020000
&IEDQMHF(1) SETB 1                      SET SSCP MSG IND ON    @Y17XAMN 06020400
.MHTTMH  AIF   ('&IEDNCT' EQ '0').MHDFCF                       @Y17XAMN 06020800
         AIF   (&IEDQZA(64)).MHDFCF                            @Y17XAMN 06021200
         AIF   (&IEDQMHF(2)).MHDFCF                            @Y17XAMN 06021600
         MNOTE 8,'*** IED805 TOTE MH REQUIRED.'                @Y17XAMN 06022000
&IEDQMHF(2) SETB 1                      SET SSCP MSG IND ON    @Y17XAMN 06022400
.* CHECK AND SET APPROPRIATE FLAGS FOR DFC=FULL OR DFC=PARTIAL @Y17XAMN 06022800
.* OR DFC=NONE.                                                @Y17XAMN 06023200
.MHDFCF  AIF   ('&DFC' NE 'FULL').MHDFCP                       @Y17XAMN 06023600
.MHDFCT  ANOP                                                  @YM08079 06023800
&FLG0(2) SETB  1                        SET DFC=FULL FLAG      @Y17XAMN 06024000
         AGO   .MHLU                                           @Y17XAMN 06024400
.MHDFCP  AIF   ('&DFC' NE 'PARTIAL').MHDFCN                    @Y17XAMN 06024800
&FLG0(1) SETB  1                        SET DFC=PARTIAL FLAG   @Y17XAMN 06025200
         AGO   .MHLU                                           @Y17XAMN 06025600
.MHDFCN  AIF   ('&DFC' EQ 'NONE').MHLU                         @Y17XAMN 06026000
         MNOTE 4,'*** IED806 INVALID DFC OPERAND,DEFAULT USED' @Y17XAMN 06026400
.* CHECK AND SET APPROPRIATE FLAG FOR LU=YES OR LU=NO.         @Y17XAMN 06026800
.MHLU    AIF   ('&LU' NE 'YES').MHLUNO                         @Y17XAMN 06027200
&LUIND   SETB  1                        SET FLAG FOR LU=YES    @Y17XAMN 06027600
         AGO   .MHBXT                                          @Y17XAMN 06028000
.MHLUNO  AIF   ('&LU' EQ 'NO').MHBXT                           @Y17XAMN 06028400
         MNOTE 4,'*** IED807 INVALID LU OPERAND DEFAULT USED.' @Y17XAMN 06028800
.MHBXT   AIF   (T'&BEXIT(2) EQ 'O').MHCONT                     @ZM47814 06028910
&FLG0(3) SETB  ('&BEXIT(2)' NE '0')                            @ZM47814 06029210
         AGO   .MHCONT                                         @YM07337 06029900
.* IF THIS IS NOT A 3705 SYSTEM AND NO 3705 OPERANDS ARE       @Y17XAMN 06030800
.* CODED, CONTINUE WITH THE LOGIC FLOW.                        @Y17XAMN 06031200
.MH3705  AIF   ('&BEXIT(1)' EQ '0' AND '&BEXIT(2)' EQ '0' AND          *06031610
               '&LU' EQ 'NO' AND '&DFC' EQ 'PARTIAL' AND               *06031710
               '&MH' EQ 'USER').MHCONT                         @ZM47814 06032010
         MNOTE 4,'*** IED809 3705 OPERANDS CODED IN NON-3705 ENVIRONMENT06032400
               T, OPERANDS IGNORED'                            @Y17XAMN 06032800
.* CONTINUE WITH LOGIC FLOW UNTIL THE ACTUAL CONTROL BLOCK     @Y17XAMN 06033200
.* IS GENERATED.                                               @Y17XAMN 06033600
.MHCONT  AIF   ('&ALTMH' EQ '').ALTMHOK                        @Y17XANQ 06040000
         IEDQCHAR 8,&ALTMH                                       S22029 06080022
         AIF   (NOT &IEDQZA(24) AND '&ALTMH' NE '&NAME').ALTMHOK        06120000
.ALTMERR MNOTE 12,'*** IHB300 ALTMH OPERAND INVALID AS SPECIFIED' 22029 06240022
&NOGO    SETB  1                                                 S22029 06280022
.ALTMHOK AIF   ('&NAME' NE '').BREG                                     06400000
         MNOTE 12,'*** IHB076  MACRO NAME FIELD BLANK - NAME REQUIRED'  06800020
&NOGO    SETB  1                                                        07200020
.BREG    AIF   ('&BREG' EQ '').CLC                                      07600020
         AIF   ('&BREG' GE '1' AND '&BREG' LE '11').CLC                 08000020
         MNOTE 12,'***  IHB300  BASEREG OPERAND INVALID AS SPECIFIED'   08400020
&NOGO    SETB  1                                                        08800020
.CLC     AIF   ('&LC' NE '').CKLC                                       09200020
         MNOTE 12,'***  IHB001  LC OPERAND REQ''D - NOT SPECIFIED'      09600020
&NOGO    SETB  1                                                        10000020
         AGO   .CSC                                                     10400020
.CSTOP   AIF   ('&CONT' NE '' AND '&STOP' NE '').ERR                    10800020
&FLG(8)  SETB  1                                                        11200020
&FLG(2)  SETB  ('&STOP' EQ '')                                          11600020
         AIF   ('&STOP' EQ 'YES' OR '&CONT' EQ 'YES').CCNV              12000020
&FLG(3)  SETB  1                                                        12400020
         AIF   ('&STOP' EQ '').CONT                                     12800020
         AIF   ('&STOP(1)' NE '' AND '&STOP(2)' NE '').STOP             13200020
.SERR    MNOTE 12,'***  IHB300  STOP OPERAND INVALID AS SPECIFIED'      13600020
&NOGO    SETB  1                                                        14000020
         AGO   .CTSO                                                    14400020
.STOP    AIF   ('&STOP(1)'(K'&STOP(1),1) EQ ')' OR '&STOP(1)'(K'&STOP(1*14800020
               ),1) EQ '''').SERR                                       15200020
         AIF   (K'&STOP(1) GT 8).SERR                                   15600020
         IEDQMASK &STOP(2),1                                            16000020
         AIF   (&IEDQZA(24)).SERR                                       16400020
         AGO   .CCNV                                                    16800020
.CONT    AIF   ('&CONT(1)' NE '' AND '&CONT(2)' NE '').CTEST            17200020
.CERR    MNOTE 12,'***  IHB300  CONT OPERAND INVALID AS SPECIFIED'      17600020
&NOGO    SETB  1                                                        18000020
         AGO   .CTSO                                                    18400020
.CTEST   AIF   ('&CONT(1)'(K'&CONT(1),1) EQ ')' OR '&CONT(1)'(K'&CONT(1*18800020
               ),1) EQ '''').CERR                                       19200020
         AIF   (K'&CONT(1) GT 8).CERR                                   19600020
         IEDQMASK &CONT(2),1                                            20000020
         AIF   (&IEDQZA(24)).CERR                                       20400020
         AGO   .CCNV                                                    20800020
.CKLC    AIF   ('&LMD' EQ '' OR '&LMD' EQ 'NO').GOON             S22025 21220000
&LMDB    SETA  1                                                 S22025 21226022
         AIF   ('&LMD' EQ 'YES').SETYES                         SA57357 21232022
         AIF   ('&LMD(1)'(K'&LMD(1),1) EQ ')' OR '&LMD(1)'(K'&LMD(1),1)X21260022
                EQ '''').LMDERR                                  S22025 21280022
         AIF   (K'&LMD(1) GT 8).LMDERR                           S22025 21300022
         IEDQMASK &LMD(2),1                                      S22025 21320022
         AIF   (&IEDQZA(24)).LMDERR                              S22025 21340022
&LMDB    SETA  3                                                 S22025 21360022
         AGO   .SETYES                                          SA57357 21370004
.LMDERR  MNOTE 12,'*** IHB300  LMD OPERAND INVALID AS SPECIFIED' S22025 21380022
&NOGO    SETB  1                                                 S22025 21400022
.SETYES  ANOP                                                   SA57357 21406022
&IEDQZA(48)  SETB 1                                             SA57357 21412022
.GOON    ANOP                                                    S22025 21420022
&FLG(1)  SETB  ('&LC' EQ 'IN')                                          21600020
         AIF   ('&LC' EQ 'OUT' OR &FLG(1) EQ 1).CSC                     22000020
.LCERR   MNOTE 12,'***  IHB300  LC OPERAND INVALID AS SPECIFIED'        22400020
&NOGO    SETB  1                                                        22800020
.CSC     AIF   ('&STOP' NE '' OR '&CONT' NE '').CSTOP                   23300000
         AIF   ('&CONV' EQ '' AND '&LOGICAL' EQ '').CTSO                23600022
.ERR     MNOTE 12,'***  IHB066  INCONSISTENT OPERANDS'                  24000020
&NOGO    SETB  1                                                        24400020
.CCNV    AIF   ('&CONV' EQ '' OR '&CONV' EQ 'NO').CLG                   24800022
&FLG(4)  SETB  1                                                        25200020
&FLG(5)  SETB  ('&CONV' NE 'YES')                                       25600020
         AIF   (NOT &FLG(5)).CLG                                        26000020
         AIF   ('&LMDB' EQ '3').INCON                           SA55926 26200022
         AIF   ('&CONV(1)' NE '' AND '&CONV(2)' NE '').VTEST            26400020
.VERR    MNOTE 12,'***  IHB300  CONV OPERAND INVALID AS SPECIFIED'      26800020
&NOGO    SETB  1                                                        27200020
         AGO   .CLG                                                     27600020
.INCON   MNOTE 12,'*** IHB066 INCONSISTENT OPERANDS'            SA55926 27700022
&NOGO    SETB  1                                                SA55926 27800022
         AGO   .CLG                                             SA55926 27900022
.VTEST   AIF   ('&CONV(1)'(K'&CONV(1),1) EQ ')' OR '&CONV(1)'(K'&CONV(1*28000020
               ),1) EQ '''').VERR                                       28400020
         AIF   (K'&CONV(1) GT 8).VERR                                   28800020
         IEDQMASK &CONV(2),1                                            29200020
         AIF   (&IEDQZA(24)).VERR                                       29600020
.CLG     AIF   ('&LOGICAL' EQ '').CTSO                                  30000020
&FLG(6)  SETB  1                                                        30400020
         AIF   ('&LOGICAL(2)' NE '' AND ('&LOGICAL(1)' EQ '' OR '&LOGIC*30800020
               AL(3)' EQ '')).LERR                                      31200020
         AIF   ('&LOGICAL(3)' NE '' AND ('&LOGICAL(1)' EQ '' OR '&LOGIC*31600020
               AL(2)' EQ '')).LERR                                      32000020
         AIF   (K'&LOGICAL(1) LE 8).OP2                                 32400020
.LERR    MNOTE 12,'***  IHB300  LOGICAL OPERAND INVALID AS SPECIFIED'   32800020
&NOGO    SETB  1                                                        33200020
         AGO   .CTSO                                                    33600020
.OP2     AIF   ('&LOGICAL(2)' EQ '').CTSO                               34000020
&FLG(7)  SETB  1                                                        34400020
         AIF   ('&LOGICAL(2)'(K'&LOGICAL(2),1) EQ ')').LERR     SA51768 34800022
         AIF   ('&LOGICAL(2)'(1,1) NE 'X').OP3                  SA51768 35100022
         AIF   ('&LOGICAL(2)'(2,1) NE '''').LERR                SA51768 35400022
.OP3     AIF   (K'&LOGICAL(2) GT 8).LERR                        SA51768 35700022
         IEDQMASK &LOGICAL(2),1                                         36000020
         AIF   (&IEDQZA(24)).LERR                                       36400020
         AIF   ('&LOGICAL(3)' EQ '').CTSO                               36800020
         AIF   ('&LOGICAL(3)'(K'&LOGICAL(3),1) EQ ')' OR '&LOGICAL(3)'(K37200020
               K'&LOGICAL(3),1) EQ '''').LERR                           37600020
         AIF   (K'&LOGICAL(3) GT 8).LERR                                38000020
.CTSO    AIF   ('&TSOMH' EQ 'YES' OR '&TSOMH' EQ 'NO').TSOMH        TS  38400020
.TSOER   ANOP                                                           38800021
         AIF   (&IEDQZA(51) OR &IEDQZA(52)).TSOMHER              CLUP21 38850021
         MNOTE 12,'***  IHB070  SEQUENCE ERROR - MUST FOLLOW INTRO     X38900021
               MACRO'                                            CLUP21 38950021
         AGO   .MEND                                             CLUP21 39000021
.TSOMHER MNOTE 12,'***  IHB300  TSOMH OPERAND INVALID AS SPECIFIED'     39050021
.* PRECEDING STATEMENT CHANGED FOR RELEASE 21 CLEANUP            CLUP21 39100021
         AGO   .MEND                                                TSO 39200020
.TSOMH   AIF   ('&TSOMH' EQ 'NO').NOTSO                                 39600020
         AIF   (NOT &IEDQZA(51)).TSOER                              TSO 40000020
&IEDQZA(9) SETB 1                                                   TSO 40400020
         AGO   .ONWARD                                              TSO 41200020
.NOTSO   AIF   ('&MH' EQ 'SSCP' OR '&MH' EQ 'TOTE').ONWARD     @YM08440 41400000
         AIF   (NOT &IEDQZA(52)).TSOER                         @YM08440 41600000
.ONWARD  AIF   (&NOGO).MEND                                             42000020
&IEDQZA(1) SETB 0                                                       42400020
&IEDQZA(2) SETB 0                                                       42800020
&IEDQZA(3) SETB 0                                                       43200020
&IEDQZA(4) SETB 0                                                       43600020
&IEDQZA(5) SETB 0                                                       44000020
&IEDQZA(46) SETB 1                                                      44400020
         CNOP  0,4                                                      44800020
.* IF THIS IS A 3705 SYSTEM,CHECK FOR AND CREATE THE           @Y17XAMN 44820000
.* APPROPRIATE TCAM MH ENTRY AND/OR LU MH TABLE ENTRY.         @Y17XAMN 44840000
.MHCBGEN ANOP                                                  @Y17XAMN 44860000
         AIF   (NOT &IEDQRN(1)).MHSTG                          @Y17XAMN 44880000
         AIF   (&IEDQZA(36)).MHLU1                             @Y17XAMN 44900000
&C       SETC  '&SYSECT'                                       @Y17XAMN 44920000
IEDQMHTB       CSECT                                           @Y17XAMN 44940000
         DC    CL8'&IEDQSV1(5)'         TCAM MHNAME            @Y17XAMN 44960000
         DC    A(0)                     TCAM MHENTRY           @Y17XAMN 44980000
         DC    X'FF'                                           @Y17XAMN 45000000
&C       CSECT                                                 @Y17XAMN 45020000
&IEDQZA(36)    SETB 1                                          @Y17XAMN 45040000
.MHLU1   AIF   (NOT &LUIND).MHSTG                              @Y17XAMN 45060000
&C       SETC  '&SYSECT'                                       @Y17XAMN 45080000
IEDQMHTB       CSECT                                           @Y17XAMN 45100000
         ORG   *-1                                             @Y17XAMN 45120000
         DC    CL8'&NAME'               TCAM MHNAME            @Y17XAMN 45140000
         DC    A(&NAME)                 TCAM MHENTRY           @Y17XAMN 45160000
         DC    X'FF'                                           @Y17XAMN 45180000
&C       CSECT                                                 @Y17XAMN 45200000
.* GENERATE THE STARTMH PREFIX AND CONTINUE WITH THE LOGIC.    @Y17XAMN 45220000
.MHSTG   AIF   (NOT &FLG0(3)).MHGEN                            @Y17XANQ 45225000
         DC    V(IEDUNBND)              STMHUNBR               @Y17XANQ 45230000
         DC    V(&BEXIT(2))             STMHUBXT               @Y17XANQ 45235000
.MHGEN   DC    B'&FLG0(1)&FLG0(2)&FLG0(3)&FLG0(4)&FLG0(5)&FLG0(6)&FLG0(*45260000
               7)&FLG0(8)'              STMHFLG0               @Y17XAMN 45280000
         AIF   ('&BEXIT(1)' EQ '0' OR T'&BEXIT(1) EQ 'O').MHAL3         45283010
.*                                                             @ZM47814 45284010
         DC    VL3(&BEXIT(1))           STMHBEXIT              @Y17XANQ 45286000
         AGO   .MHALT                                          @Y17XANQ 45288000
.MHAL3   DC    AL3(0)                                          @Y17XANQ 45290000
.MHALT   AIF   ('&ALTMH' EQ '').NOALTMH                          S22029 45292000
         DC    AL1(0),AL3(&ALTMH)      ALTMH FOR MIXED ENVIRON   S22029 45800022
         AGO   .ALTCONT                                          S22029 45900022
.NOALTMH ANOP                                                    S22029 46000022
         DC    A(0)                    NO ALTMH FOR MIXED ENVIRONS22029 46100022
.ALTCONT ANOP                                                    S22029 46200022
         DC    B'&FLG(1)&FLG(2)&FLG(3)&FLG(4)&FLG(5)&FLG(6)&FLG(7)&IEDQZ46300022
               ZA(9)'                                                   46400020
         DC    AL3(0)                                                   46800020
&NAME    EQU   *-8                                                      47200020
&C       SETC  'IEDQAA'                                                 47600000
.DN      AIF   (&IEDQZA(13)).CONC                                S22026 49260022
&H       SETC  'BD'                                              S22026 49320022
         AGO   .DNX                                              S22026 49380022
.CONC    ANOP                                                    S22026 49440022
&H       SETC  'BH'                                              S22026 49500022
.DNX     AIF   (&IEDQZA(51)).BIGVCON                             S22026 49600022
         IEDQVCON (1,33,14,30,18),(IEDQ&H,IEDQA4,IEDQA1,IEDQAI,IEDQAV)  50000022
.*                                                               S22026 50200022
         AGO   .ZB                                                  TSO 50400020
.BIGVCON IEDQVCON (1,33,14,30,18,31),(IEDQ&H,IEDQA4,IEDQA1,IEDQAI,IEDQA*50800022
               V,IEDQAE)                                         S22026 51200022
.ZB      ANOP                                                       TSO 51600020
&IEDQZB  SETC  '&C'                                                     52000020
&FLG(1)  SETB  (&FLG(3) EQ 0 AND &FLG(5) EQ 0 AND &FLG(6) EQ 0 AND &LMDX52400022
               B LT 3)                                           S22025 52600022
         AIF   (&FLG(1)).NOOPT                                          52800020
&LEN     SETA  &LEN+2                                                   53200020
.NOOPT   ANOP                                                           53600020
&LEN     SETA  (&LEN+(2*(&FLG(7)+&FLG(5)+&FLG(3)+(&LMDB/2)))+&FLG(6)+19X54000022
               )/4*4                                             S22025 54200022
         AIF   ((&IEDQZA(51) EQ &IEDQZA(52)) AND NOT &IEDQZA(30)).MIXED 54230000
.*                                                             @PI05718 54310000
         AIF   (NOT &FLG(8) AND '&LMDB' EQ '0').NOEOB            S22025 54400022
.MIXED   ANOP                                                  @YA09290 54800009
&IEDQZB  SETC  'IEDQBT'                                                 55200020
.NOEOB   DC    AL1(&LEN),VL3(&IEDQZB)                                   55600020
&LEN     SETA  0                                                        56000020
         AIF   (&FLG(1)).NOAE                                           56400020
         IEDQVCON (31),(IEDQAE)                                         56800020
&LEN     SETA  &IEDQZE(31)                                              57200020
.NOAE    DC    AL1(&LEN+&LMDB),VL3(&C)                           S22025 57600022
         AIF   (&LEN EQ 0).BRN                                          58000020
&LEN     SETA  (&FLG(6)*(2*(&FLG(3)+&FLG(5)+(&LMDB/2))))         S22025 58400022
         DC    AL1(&LEN)                                                58800020
&LEN     SETA  (&FLG(3)*(2*(&FLG(5)+(&LMDB/2))))                 S22025 59200022
         DC    AL1(&LEN)                                                59600020
         AIF   (NOT &FLG(3)).GCONV                                      60000020
         AIF   (&FLG(2)).GCONT                                          60400020
         AIF   ('&STOP(2)'(1,1) EQ 'X').SX                              60800020
         DC    AL1(&STOP(1)),AL1(&STOP(2)) . STOP VALUES                61200020
         AGO   .GCONV                                                   61600022
.SX      DC    AL1(&STOP(1)),&STOP(2) . STOP VALUES                     62000020
         AGO   .GCONV                                                   62400022
.GCONT   AIF   ('&CONT(2)'(1,1) EQ 'X').CX                              62800020
         DC    AL1(&CONT(1)),AL1(&CONT(2)) . CONTINUE VALUES            63200020
         AGO   .GCONV                                                   63600022
.CX      DC    AL1(&CONT(1)),&CONT(2) . CONTINUE VALUES                 64000020
.GCONV   AIF   ('&LMDB' NE '3').TRYCONV                          S22025 64400022
         AIF   ('&LMD(2)'(1,1) EQ 'X').LXX                       S22025 64450022
         DC    AL1(&LMD(1)),AL1(&LMD(2)) . LMD VALUES            S22025 64500022
         AGO   .GLOGI                                            S22025 64550022
.LXX     DC    AL1(&LMD(1)),&LMD(2)     . LMD VALUES             S22025 64600022
         AGO   .GLOGI                                            S22025 64650022
.TRYCONV AIF   (NOT &FLG(5)).GLOGI                               S22025 64700022
         AIF   ('&CONV(2)'(1,1) EQ 'X').VX                              64800020
         DC    AL1(&CONV(1)),AL1(&CONV(2)) . CONVERSE VALUES            65200020
         AGO   .GLOGI                                                   65600020
.VX      DC    AL1(&CONV(1)),&CONV(2) . CONVERSE VALUES                 66000020
.GLOGI   AIF   (NOT &FLG(6)).BRN                                        66400020
         AIF   ('&LOGICAL(3)' EQ '').LG1                                66800020
         AIF   ('&LOGICAL(2)'(1,1) EQ 'X').LX                           67200020
         DC    AL1(&LOGICAL(1)),AL1(&LOGICAL(2)),AL1(&LOGICAL(3))       67600020
         AGO   .BRN                                                     68000020
.LX      DC    AL1(&LOGICAL(1)),&LOGICAL(2),AL1(&LOGICAL(3))            68400020
         AGO   .BRN                                                     68800020
.LG1     DC    AL1(&LOGICAL(1))                                         69200020
.BRN     DS    0F                                                       69600020
         AIF   (NOT &IEDQZA(47)).BREG1                          SA51769 69610022
&IX      SETA  1                                                SA51769 69620022