         MACRO                                                          00900020
&NAME    STATTN &LINES=,&TENS=,&INPUT=                                  01800020
.********************************************************************** 02700020
.*                                                                    * 03600020
.*RELEASE 23 DELETIONS                                                * 04500020
.*                                                                    * 05400020
.*RELEASE 22 DELETIONS                                                * 06300020
.*                                                                    * 07200020
.*RELEASE 21 DELETIONS                                                * 08100020
.*                                                                    * 09000020
.*STATUS - CHANGE LEVEL 000                                           * 09900020
.*                                                                    * 10800020
.*FUNCTION - THE STATTN MACRO IS USED TO SPECIFY THE CONDITIONS UNDER * 11700020
.*    WHICH AN ATTENTION IS TO BE SIMULATED BY THE TERMINAL HANDLER.  * 12600020
.*    THE SIMULATION ATTENTION MAY NOT BE USED FOR THE LINE DELETE    * 13500020
.*   CHARACTER ON INPUT.                                              * 14400020
.*                                                                    * 15300020
.*       THE STANDARD FORM OF THE EXPANSION IS BELOW                  * 16200020
.*&NAME  B     *+6                     BRANCH PAST DC'S               * 17100020
.*       DC    AL1(10)                  LINES INTEGER                 * 18000020
.*       DC    AL1(5)                   TENS INTEGER                  * 18900020
.*       SR    0,0                     CLEAR REGISTER                 * 19800020
.*       LH    0,*-4                   PUT 2 BYTE PARM. IN REG. 0     * 20700020
.*       LA    1,8                      LOAD ENTRY CODE               * 21600020
.*       SLL   1,24                     PUT ABOVE IN HIGH ORDER BYTE  * 22500020
.*       OR    0,1                      PUT ENTRY CODE IN REG 0       * 23400020
.*       CNOP  0,4                                                    * 24300020
.*       B     *+8                     BRANCH PAST PARAMETER          * 25200020
.*       DC    AL1(244)                 FLAG BYTE                     * 26100020
.*       DC    AL3(ADDR)                INPUT ADDRESS                 * 27000020
.*       L     1,*-4                   PUT PARAMETER IN REG. 1        * 27900020
.*       SVC   94                       ISSUE STATUS SVC              * 28800020
.*                                                                    * 29700020
.********************************************************************** 30600020
         LCLA  &SW                                                      31500020
       AIF   ('&LINES' EQ '' AND '&TENS' EQ '' AND '&INPUT' EQ '').ERR  32400020
         AIF   ('&LINES' EQ '').NULLNES                                 33300020
&SW      SETA  X'80'                                                    34200020
         AIF   ('&LINES'(1,1) EQ '(' OR '&LINES' EQ '0').LINES0         35100020
         AIF   (&LINES GT 255 OR &LINES LT 0).ERROR                     36000020
&NAME    B     *+6                     BRANCH PAST DC'S                 36900020
         DC    AL1(&LINES)              LINES INTEGER                   37800020
         AGO   .CKTENS                                                  38700020
.LINES0  ANOP                                                           39600020
&NAME    B     *+6                     BRANCH PAST DC'S                 40500020
         DC    X'00'                   LINES=0,IN REG.,NOT SPECIFIED    41400020
         AGO   .CKTENS                                                  42300020
.NULLNES ANOP                                                           43200020
&SW      SETA  X'00'                                                    44100020
         AGO   .LINES0                                                  45000020
.CKTENS  AIF   ('&TENS' EQ '').TENS0                                    45900020
&SW      SETA  &SW+X'40'                                                46800020
         AIF   ('&TENS'(1,1) EQ '(' OR '&TENS' EQ '0').TENS0            47700020
         AIF   (&TENS GT 255 OR &TENS LT 0).ERROR2                      48600020
         DC    AL1(&TENS)               TENS INTEGER                    49500020
         AGO   .LOAD0                                                   50400020
.TENS0   ANOP                                                           51300020
         DC    X'00'                   TENS=0,IN REG.,NOT SPECIFIED     52200020
.LOAD0   LH    0,*-2                   PUT 2 BYTE PARM. IN REG. 0       53100020
         SLL   0,16                    CLEAR HIGH ORDER                 54000020
         SRL   0,16                    PORTION OF REG. 0                54900020
         AIF   ('&LINES' EQ '').CKTREG                                  55800020
         AIF   ('&LINES'(1,1) NE '(').CKTREG                            56700020
         LR    1,&LINES                PUT LINES INTEGER IN REG. 1      57600020
         SLL   1,24                     TRUNCATE IF MORE THAN 255       58500020
         SRL   1,16                     PUT INTEGER IN 3RD BYTE         59400020
         OR    0,1                      PUT LINES INTEGER IN REG 0      60300020
.CKTREG  AIF   ('&TENS' EQ '').ENTRYCD                                  61200020
         AIF   ('&TENS'(1,1) NE '(').ENTRYCD                            62100020
         LR    1,&TENS                 PUT TENS INTEGER IN REG. 1       63000020
         SLL   1,24                     TRUNCATE IF MORE THAN 255       63900020
         SRL   1,24                     PUT INTEGER IN LOW ORDER BYTE   64800020
         OR    0,1                      PUT TENS INTEGER IN REG 0       65700020
.ENTRYCD LA    1,8                      LOAD ENTRY CODE                 66600020
         SLL   1,24                     PUT ABOVE IN HIGH ORDER BYTE    67500020
         OR    0,1                      PUT ENTRY CODE IN REG 0         68400020
.CKINPUT AIF   ('&INPUT' EQ '').LOADSW                                  69300020
&SW      SETA  &SW+X'20'                                                70200020
.LOADSW  ANOP                                                           71100020
         CNOP  0,4                                                      72000020
         B     *+8                     BRANCH PAST PARAMETER            72900020
         DC    AL1(&SW)                FLAG BYTE                        73800020
         AIF   ('&INPUT' EQ '').INPUT0                                  74700020
         AIF   ('&INPUT'(1,1) EQ '(').INPUT0                            75600020
         DC    AL3(&INPUT)             INPUT ADDRESS                    76500020
         AGO   .LOAD1                                                   77400020
.INPUT0  ANOP                                                           78300020
         DC    AL3(0)                                                   79200020
.LOAD1   L     1,*-4                   PUT PARAMETER IN REG. 1          80100020
         AIF   ('&INPUT' EQ '').SVC                                     81000020
         AIF   ('&INPUT'(1,1) NE '(').SVC                               81900020
         LA    &INPUT,0(&INPUT)        CLEAR HIGH ORDER BYTE            82800020
         OR    1,&INPUT                PUT PARAMETER IN REG. 1          83700020
.SVC     SVC   94                      ISSUE SVC                        84600020
         MEXIT                                                          85500020
         IHBERMAC   24                                                  86400002
.ERR     MEXIT                                                          87300002
.ERROR   IHBERMAC 54,,&LINES                                            88200020
         MEXIT                                                          89100020
.ERROR2  IHBERMAC 54,,&TENS                                             90000020
         MEND                                                           90900020
