         MACRO                                                          00020000
&NAME    STOW  &DCB,&AREA,&TYP                                          00040000
         AIF   ('&DCB' EQ '').ERR1                                      00060000
.D1      AIF   ('&AREA' EQ '').ERR2                                     00068019
.D2      AIF   ('&TYP' NE '' AND '&TYP' NE 'A' AND '&TYP' NE 'C' AND   *00076020
               '&TYP' NE 'D' AND '&TYP' NE 'R').ERR3                    00084019
         AIF   ('&DCB' EQ '' OR '&AREA' EQ '').MEND                     00092019
&NAME    IHBINNRA &DCB,&AREA                                            00100000
         AIF   ('&TYP' EQ '' OR '&TYP' EQ 'A').ISVC                     00120000
         AIF   ('&TYP' NE 'R').TSTD                                     00140000
         LCR   1,1                               INDICATE TYPE R        00160000
         AGO   .ISVC                                                    00180000
.TSTD    AIF   ('&TYP' NE 'D').TSTC                                     00200000
         LCR   0,0                               INDICATE TYPE D        00220000
         AGO   .ISVC                                                    00240000
.TSTC    LCR   1,1                          INDICATE TYPE C             00250020
         LCR   0,0                                                      00260019
.ISVC    SVC   21                                ISSUE STOW SVC         00270019
         MEXIT                                                          00300000
.ERR1    IHBERMAC 6                                                     00320000
         AGO   .D1                                                      00340019
.ERR2    IHBERMAC 13                                                    00360000
         AGO   .D2                                                      00370019
.ERR3    IHBERMAC 48,,&TYP                                              00380019
.MEND    MEND                                                           40380019
