         MACRO                                                          01000020
&NAME    STSIZE &SIZE=,&SIZELOC=,&LINE=,&LINELOC=                       02000020
.********************************************************************** 03000020
.*                                                                    * 04000020
.*RELEASE 23 DELETIONS                                                * 05000020
.*                                                                    * 06000020
.*RELEASE 22 DELETIONS                                                * 07000020
.*                                                                    * 08000020
.*RELEASE 21 DELETIONS                                                * 09000020
.*                                                                    * 10000020
.*STATUS - CHANGE LEVEL 000                                           * 11000020
.*                                                                    * 12000020
.*NAME - STSIZE                                                       * 13000020
.*                                                                    * 14000020
.*FUNCTION - THE STSIZE MACRO IS USED TO SPECIFY THE LINE SIZE OF THE * 15000020
.*   TERMINAL. THE MAXIMUM LINE SIZE THAT CAN BE SPECIFIED IS 255.    * 16000020
.*                                                                    * 17000020
.*       THE MACRO PROTOTYPE IS ABOVE                                 * 18000020
.*                                                                    * 19000020
.*       THE STANDARD FORM OF EXPANSION IS BELOW                      * 20000020
.*                                                                    * 21000020
.*&NAME  L     0,10                     LOAD ENTRY CODE               * 22000020
.*       SLL   0,24                     PUT ENTRY CODE IN LEFT MOST   * 23000020
.*                                      BYTE OF REGISTER              * 24000020
.*       L     1,15                     LOAD LINE NUMBER              * 25000020
.*       OR    0,1                      PUT LINE NUMBER IN PARM REG   * 26000020
.*       L     1,120                    LOAD LINE SIZE                * 27000020
.*       SVC   94                       ISSUE SVC                     * 28000020
.*                                                                    * 29000020
.********************************************************************** 30000020
&NAME    LA    0,10                     LOAD ENTRY CODE                 31000020
         SLL   0,24                     PUT CODE IN HIGH ORDER BYTE     32000020
         AIF   ('&LINE' NE '' AND '&LINELOC' EQ '').LNHERE              33000020
         AIF ('&LINE' NE '' AND '&LINELOC' NE '').ERROR                 34000020
         AIF   ('&LINE' EQ '' AND '&LINELOC' NE '').LNADDR              35000020
         AGO  .SZLC                                                     36000020
.LNHERE  AIF   ('&LINE'(1,1) EQ '(').LNREG                              37000020
         LA    1,&LINE                  PUT LINE NUMBER IN REG          38000020
         AGO   .OREG                                                    39000020
.LNREG   LR    1,&LINE                  PUT LINE NUMBER IN REG          40000020
         AGO   .OREG                                                    41000020
.LNADDR  AIF   ('&LINELOC'(1,1) EQ '(').LNADDRG                         42000020
         L     1,&LINELOC               GET LINE NUMBER                 43000020
         AGO   .OREG                                                    44000020
.LNADDRG L     1,0(&LINELOC)            GET LINE NUMBER                 45000020
.OREG    OR    0,1                      PUT LINE NUMBER IN PARM REG     46000020
.SZLC    AIF ('&SIZE' NE '' AND '&SIZELOC' NE '').ERROR                 47000020
         AIF ('&SIZE' EQ '' AND '&SIZELOC' EQ '').ERROR1                48000020
         AIF   ('&SIZE' NE '' AND '&SIZELOC' EQ '').SZHERE              49000020
         AIF   ('&SIZE' EQ '' AND '&SIZELOC' NE '').SZADDR              50000020
         AGO   .ERROR                                                   51000020
.SZHERE  AIF   ('&SIZE'(1,1) EQ '(').SZREG                              52000020
         LA    1,&SIZE                                                  53000020
         AGO   .EXIT                                                    54000020
.SZREG   ANOP                                                           55000020
         LR    1,&SIZE                  PREPARE PARAMETER               56000020
         AGO   .EXIT                                                    57000020
.SZADDR  AIF   ('&SIZELOC'(1,1) EQ '(').ADDREG                          58000020
         L     1,&SIZELOC               PREPARE PARAMETER               59000020
         AGO   .EXIT                                                    60000020
.ADDREG  ANOP                                                           61000020
         L     1,0(&SIZELOC)            LOAD LINE SIZE                  62000020
.EXIT    SVC   94                       ISSUE SVC                       63000020
         MEXIT                                                          64000020
.ERROR1  IHBERMAC 8,,,                                                  65000020
         MEXIT                                                          66000020
.ERROR   IHBERMAC 54,,,                                                 67000020
         MEXIT                                                          68000020
         MEND                                                           69000020
