         MACRO                                                          09000013
&NAME   SYNADRLS                                                        18000013
&NAME    LA    15,0(0,15)               ZERO HIGH ORDER BYTE            27000013
         CNOP  0,4                                                      36000013
         O     15,*+8                  SET RELEASE CODE                 45000013
         B     *+8                      BRANCH AROUND CODE              54000019
         DC    X'FF000000'              RELEASE CODE                    63000013
         SVC   68             ISSUE SVC                                 72000013
         MEND                                                           81000013
