         MACRO                                                          01000013
&NAME   SYNADAF &ACSMETH=,&PARM1=,&PARM2=                               02000013
         LCLC  &CB1                                                     03000013
         AIF   (T'&ACSMETH EQ 'O').AMERR                                05000013
         AIF   ('&ACSMETH' EQ '(0)').AMERR                              06000013
&CB1     SETC  '&ACSMETH'(1,1)                                          07000013
         AIF   ('&CB1' EQ '(').AMERR                                    08000013
&CB1     SETC  '(0)'                                                    09000013
         AIF   ('&ACSMETH' EQ 'EXCP').AMCOM                             10000013
&CB1     SETC  '(1)'                                                    11000013
         AIF   ('&ACSMETH' EQ 'BPAM').AMCOM                             12000013
&CB1     SETC  '(2)'                                                    13000013
         AIF   ('&ACSMETH' EQ 'BSAM').AMCOM                             14000013
&CB1     SETC  '(3)'                                                    15000013
         AIF   ('&ACSMETH' EQ 'QSAM').AMCOM                             16000013
&CB1     SETC  '(4)'                                                    17000013
         AIF   ('&ACSMETH' EQ 'BDAM').AMCOM                             18000013
&CB1     SETC  '(5)'                                                    19000013
         AIF   ('&ACSMETH' EQ 'BISAM').AMCOM                            20000013
&CB1     SETC  '(6)'                                                    21000013
         AIF   ('&ACSMETH' EQ 'QISAM').AMCOM                            22000013
&CB1     SETC  '(7)'                                                    23000013
         AIF   ('&ACSMETH' EQ 'BTAM').AMCOM                             24000013
&CB1     SETC  '(8)'                                                    25000013
         AIF   ('&ACSMETH' EQ 'QTAM').AMCOM                             26000013
&CB1     SETC  '(9)'                                                    27000013
         AIF   ('&ACSMETH' EQ 'GAM').AMCOM                              28000013
.AMERR   MNOTE 8,' ERROR ** ACCESS METHOD NOT SPEC. OR ILLEGAL '  15138 28800016
         MEXIT                                                    15138 29600016
.AMCOM   ANOP                                                     15138 30400016
&NAME    LA    15,0(0,15)              ZERO HIGH ORDER BYTE       15138 31200016
         CNOP  0,4                                                15138 32000016
         O     15,*+8         SET ACCESS METHOD IN REG. 15              33000013
         BC    15,*+8         BRANCH AROUND LIST                        34000013
         DC    AL1&CB1        ACCESS METHOD CODE                        35000013
         DC    AL3(0)                                                   36000013
.PARMA   AIF   (T'&PARM1 EQ 'O').PARMB                                  37000013
         AIF   ('&PARM1' EQ '(1)').PARMB                                38000013
&CB1     SETC  '&PARM1'(1,1)                                            39000013
         AIF   (NOT ('&CB1' EQ '(')).SYMA                               40000013
         LR    1,&PARM1(1)    GET ADDRESS IN REG. 1                     41000013
         AGO   .PARMB                                                   42000013
.SYMA    LA    1,&PARM1       GET ADDRESS IN REG. 1                     43000013
.PARMB   AIF   (T'&PARM2 EQ 'O').COM                                    44000013
         AIF   ('&PARM2' EQ '(0)').COM                                  45000013
&CB1     SETC  '&PARM2'(1,1)                                            46000013
         AIF   (NOT ('&CB1' EQ '(')).SYMB                               47000013
         LR    0,&PARM2(1)    SET PARAMETER IN REG. 0                   48000013
         AGO   .COM                                                     49000013
.SYMB    LA    0,&PARM2(1)    GET PARAMETER IN REG. 0                   50000013
.COM     SVC   68             ISSUE SVC                                 51000013
         MEND                                                           52000013
