*%/*                                                           @ZA24619 00060003
         MACRO                                                 @ZA24619 00110003
&NAME    SYNCH &EP,&RESTORE=,&KEYADDR=,&STATE=,&MF=            @ZA24619 00160003
.**************************************************************@ZA24619 00190003
.* REWRITE OF THE SYNCH MACRO FOR OZ24619 ADDS NEW PARAMETERS  @ZA24619 00220003
.*   RESTORE AND MF PLUS A PARAMETER LIST.                     @ZA24619 00230003
.* ADDITIONAL PARAMETERS ADDED FOR OZ30455 ARE STATE AND KEY   @ZA24619 00240003
.* ALL CODE IS FLAGGED WITH @ZA24619 SINCE ALL CHANGES WERE    @ZA24619 00250003
.*   DONE AT THE SAME TIME.                                    @ZA24619 00260003
.**************************************************************@ZA24619 00270003
.*  DECLARE LOCAL VARIABLES                                    @ZA24619 00280003
.**************************************************************@ZA24619 00290003
         LCLA  &PARM,&PARML                                    @ZA24619 00300003
         LCLB  &B0,&B1,&B2,&B3,&B4,&B5,&B6,&B7                 @ZA24619 00310003
         LCLB  &B8,&B9,&B10,&B11,&B12,&B13,&B14,&B15           @ZA24619 00320003
         LCLC  &PREG                                           @ZA24619 00330003
.**************************************************************@ZA24619 00370003
.* CHECK FOR PARAMETER INCONSISTENCIES                         @ZA24619 00400003
.* IF MF=L THEN EP AND KEYADDR ARE NOT ALLOWED                 @ZA24619 00430003
.* IF MF IS NOT L THEN EP IS REQUIRED                          @ZA24619 00460003
.**************************************************************@ZA24619 00490003
         AIF   ('&MF' NE 'L').SYN0     MF=L CODED ?            @ZA24619 00520003
.*                                     YES,CONTINUE            @ZA24619 00550003
         AIF   ('&EP' NE '').ERR4      CAN NOT HAVE EP         @ZA24619 00580003
         AIF   (T'&KEYADDR NE 'O').ERR3  CAN NOT HAVE KEYADDR  @ZA24619 00610003
         AGO   .SYN2                                           @ZA24619 00640003
.SYN0    AIF   ('&EP' EQ '').ERR5      IF MF^=L MUST HAVE EP   @ZA24619 00670003
.**************************************************************@ZA24619 00700003
.* EXPAND CODE TO PUT ENTRY POINT ADDRESS IN REGISTER 15       @ZA24619 00730003
.**************************************************************@ZA24619 00760003
&NAME    DS    0H                      ALIGNMENT AND NAME      @ZA24619 00790003
         AIF   ('&EP'(1,1) EQ '(').SYN1 REGISTER SPECIFIED?    @ZA24619 00820003
.*                                      NO                     @ZA24619 00850003
         LA    15,&EP                  LOAD ENTRY POINT ADDR.  @ZA24619 00880003
         AGO   .SYN2                                           @ZA24619 00910003
.SYN1    AIF   ('&EP(1)'(1,2) EQ '15').SYN2  EP IN REG 15 ?    @ZA24619 00940003
.*                                      NO,LOAD INTO REG 15    @ZA24619 00970003
         LR    15,&EP(1)               LOAD ENTRY POINT ADDR.  @ZA24619 01000003
.**************************************************************@ZA24619 01030003
.* CHECK PARAMETERS - WHICH SPECIFIED AND HOW                  @ZA24619 01060003
.**************************************************************@ZA24619 01090003
.SYN2    AIF   (T'&RESTORE EQ 'O').SYN4  RESTORE PARM CODED?   @ZA24619 01220003
&PARM    SETA  1                         YES                   @ZA24619 01310003
         AIF   ('&RESTORE' NE 'YES').SYN3                      @ZA24619 01360003
&B0      SETB  1                         TURN ON BIT IN PARMLIS@ZA24619 01410003
         AGO   .SYN4                                           @ZA24619 01460003
.SYN3    AIF   ('&RESTORE' NE 'NO').ERR1 INVALID RESTORE PARM? @ZA24619 01510003
.*                                       RESTORE=NO,CONTINUE   @ZA24619 01560003
.SYN4    AIF   (T'&STATE EQ 'O').SYN6    STATE PARM CODED ?    @ZA24619 01610003
&PARM    SETA  1                         YES                   @ZA24619 01660003
         AIF   ('&STATE' NE 'SUPV').SYN5 STATE=SUPV ?          @ZA24619 01710003
.*                                       YES                   @ZA24619 01760003
&B9      SETB  1                         TURN ON IN PARMLIST   @ZA24619 01810003
         AGO   .SYN6                                           @ZA24619 01860003
.SYN5    AIF   ('&STATE' NE 'PROB').ERR2 INVALID STATE PARM?   @ZA24619 01880003
.*                                       NO,CONTINUE           @ZA24619 01900003
.SYN6    AIF   (T'&KEYADDR EQ 'O').SYN7   KEYADDR PARM CODED?  @ZA24619 01920003
&PARM    SETA  1                         PARM SPECIFIED        @ZA24619 01940003
         AIF   ('&KEYADDR' EQ 'NOKEYADDR').SYN7 KEY OVER RIDE? @ZA24619 01960003
&B8      SETB  1                         NO,TURN ON PARM       @ZA24619 01980003
.**************************************************************@ZA24619 02070003
.*  ANALYZE MF  PARAMETER AND EXPAND CODE ACCORDINGLY          @ZA24619 02090003
.**************************************************************@ZA24619 02110003
.SYN7    AIF   ('&MF' NE 'L').SYN8       MF=L ?                @ZA24619 02130003
.*                                       YES,CONTINUE          @ZA24619 02150003
.**************************************************************@ZA24619 02170003
.* MF=L FORM OF MACRO SPECIFIED, GENERATE LIST ONLY            @ZA24619 02190003
.**************************************************************@ZA24619 02210003
&NAME    DS    0H                      ALIGNMENT AND NAME      @ZA24619 02360003
         DC    B'&B0&B1&B2&B3&B4&B5&B6&B7'                     @ZA24619 02390003
         DC    B'&B8&B9&B10&B11&B12&B13&B14&B15'               @ZA24619 02420003
         DC    X'00'                   KEY BYTE OF PARM. LIST  @ZA24619 02450003
         DC    X'00'                   RESERVED                @ZA24619 02480003
         AGO   .EXIT                                           @ZA24619 02560003
.SYN8    AIF   (T'&MF NE 'O').SYN9     MF CODED ?              @ZA24619 02580003
.**************************************************************@ZA24619 02600003
.* MF NOT SPECIFIED,PUT PARAMETER LIST IN LINE IF NEEDED       @ZA24619 02620003
.**************************************************************@ZA24619 02640003
         AIF   (&PARM EQ 0).SVC        ANY OTHER PARMS CODED?  @ZA24619 02710003
.*                                     YES,EXPAND PARM LIST    @ZA24619 02760003
         CNOP  0,4                     ALIGNMENT FOR OR        @ZA24619 02810003
         B     *+12                    BRANCH AROUND CONSTANTS @ZA24619 02840003
         DC    XL4'00000001'           PARAMETER LIST CONSTANT @ZA24619 02870003
         DC    B'&B0&B1&B2&B3&B4&B5&B6&B7'                     @ZA24619 02900003
         DC    B'&B8&B9&B10&B11&B12&B13&B14&B15'               @ZA24619 02930003
         DC    X'00'                   KEY BYTE OF PARM. LIST  @ZA24619 02960003
         DC    X'00'                   RESERVED                @ZA24619 02990003
         LA    14,*-4                  POINT REG14 TO PARMLIST @ZA24619 03060003
         O     15,*-12                 INDICATE LIST EXISTS    @ZA24619 03110003
         AGO   .SYN16                  GO CHECK KEYADDR        @ZA24619 03160003
.SYN9    AIF   ('&MF(1)' NE 'E').ERR6  MF=E?                   @ZA24619 03210003
.**************************************************************@ZA24619 03260003
.*  MF=E FORM OF MACRO SPECIFIED, GET ADDRESS OF PARM. LIST   *@ZA24619 03280003
.**************************************************************@ZA24619 03300003
         AIF   ('&MF(2)' EQ '').ERR7   PARM ADDR. SPECIFIED ?  @ZA24619 03320003
.*                                     YES,CONTINUE            @ZA24619 03360003
         CNOP  0,4                     ALIGNMENT FOR OR        @ZA24619 03400003
         B     *+8                     BRANCH AROUND CONSTANT  @ZA24619 03440003
         DC    XL4'00000001'           PARAMETER LIST CONSTANT @ZA24619 03480003
.*                                                             @ZA24619 03520003
         AIF   ('&MF(2)'(1,1) NE '(').SYN10  REGISTER SPECIFIED@ZA24619 03560003
&PARML   SETA  K'&MF(2)-2              GET LENGTH OF REGISTER  @ZA24619 03660003
&PREG    SETC  '&MF(2)'(2,&PARML)      GET REGISTER SPECIFIED  @ZA24619 03680003
.*                                                             @ZA24619 03700003
         LA    14,0(&PREG)             POINT REG 14 TO PARMLIST@ZA24619 03720003
         O     15,*-8                  INDICATE LIST EXISTS    @ZA24619 03740003
.*                                                             @ZA24619 03760003
         AGO   .SYN11                  GO CHECK FOR OTHER PARMS@ZA24619 03810003
.SYN10   ANOP                                                  @ZA24619 03960003
.*                                                             @ZA24619 04010003
         LA    14,&MF(2)               POINT REG 14 TO PARMLIST@ZA24619 04060003
         O     15,*-8                  INDICATE LIST EXISTS    @ZA24619 04110003
.*                                                             @ZA24619 04160003
.SYN11   AIF   (&PARM EQ 0).SVC        IF NO OTHER PARMS, ISSUE@ZA24619 04190003
.**************************************************************@ZA24619 04220003
.*  MF=E CHECK FOR OVER RIDING PARAMETERS                      @ZA24619 04250003
.**************************************************************@ZA24619 04280003
         AIF   (T'&RESTORE EQ 'O').SYN13    RESTORE CODED ?    @ZA24619 04310003
         AIF   ('&RESTORE' NE 'YES').SYN12  RESTORE=YES ?      @ZA24619 04340003
.*                                          YES,TURN ON BIT    @ZA24619 04370003
         OI    0(14),B'&B0&B1&B2&B3&B4&B5&B6&B7'  RESTORE=YES  @ZA24619 04400003
.*                                                             @ZA24619 04430003
         AGO   .SYN13                       GO CHECK OTHER PARM@ZA24619 04460003
.SYN12   ANOP                               NO ,TURN OFF BIT   @ZA24619 04490003
.*                                                             @ZA24619 04520003
         NI    0(14),X'FF'-X'80'       RESTORE=NO              @ZA24619 04550003
.*                                                             @ZA24619 04560003
.**************************************************************@ZA24619 04570003
.* CHECK STATE AND KEYADDR FOR COMBINATIONS AND ADJUST BITS    @ZA24619 04580003
.**************************************************************@ZA24619 04590003
.SYN13   AIF   ((T'&STATE EQ 'O') AND (T'&KEYADDR EQ 'O')).SVC @ZA24619 04600003
         AIF   (('&STATE' EQ 'PROB') AND ('&KEYADDR' EQ 'NOKEYADDR')).SX04610003
               YN13A                                           @ZA24619 04620003
         AIF   ('&STATE' EQ 'PROB').SYN13B                     @ZA24619 04630003
         AIF   ('&KEYADDR' EQ 'NOKEYADDR').SYN13C              @ZA24619 04640003
         AGO   .SYN14                       TURN ON BIT OR BITS@ZA24619 04650003
.SYN13A  ANOP                               NO,TURN OFF BOTH   @ZA24619 04660003
         NI    1(14),X'FF'-X'C0'       TURN OFF BOTH BITS      @ZA24619 04670003
         AGO   .SVC                         GO ISSUE SVC       @ZA24619 04680003
.SYN13B  ANOP                                                  @ZA24619 04690003
         NI    1(14),X'FF'-X'40'       TURN OFF SUPV BIT       @ZA24619 04700003
         AIF   (T'&KEYADDR EQ 'O').SVC      KEYADDR SPECIFIED? @ZA24619 04710003
         AGO   .SYN14                       GO TURN ON KEY BIT @ZA24619 04720003
.SYN13C  ANOP                                                  @ZA24619 04730003
         NI    1(14),X'FF'-X'80'       TURN OFF KEYADDR BIT    @ZA24619 04740003
         AIF   (T'&STATE EQ 'O').SVC        STATE SPECIFIED ?  @ZA24619 04750003
.**************************************************************@ZA24619 04940003
.* TURN ON EITHER OR BOTH BITS IN PARAMETER LIST               @ZA24619 04970003
.**************************************************************@ZA24619 05000003
.SYN14   ANOP                                                  @ZA24619 05030003
.*                                                             @ZA24619 05060003
         OI    1(14),B'&B8&B9&B10&B11&B12&B13&B14&B15'         @ZA24619 05090003
.**************************************************************@ZA24619 05460003
.*  MOVE KEY INTO PARAMETER LIST                               @ZA24619 05470003
.**************************************************************@ZA24619 05480003
.SYN16   AIF   ('&KEYADDR' EQ 'NOKEYADDR').SVC NO KEY? BRANCH  @ZA24619 05510003
         AIF   (T'&KEYADDR EQ 'O').SVC      KEYADDR SPECIFIED? @ZA24619 05530003
.*                                          YES,GET KEY        @ZA24619 05550003
         AIF   ('&KEYADDR'(1,1) EQ '(').SYN17 REGISTER ?       @ZA24619 05570003
.*                                          NO,GENERATE CODE   @ZA24619 05590003
         MVC   2(1,14),&KEYADDR        MOVE KEY TO PARM LIST   @ZA24619 05610003
.*                                          NO,GENERATE CODE   @ZA24619 05670003
         AGO   .SVC                         GO ISSUE SVC       @ZA24619 05690003
.SYN17   ANOP                               REGISTER SPECIFIED @ZA24619 05710003
&PARML   SETA  K'&KEYADDR-2                 GET LENGTH OF REG  @ZA24619 05730003
&PREG    SETC  '&KEYADDR'(2,&PARML)         GET REGISTER       @ZA24619 05750003
.*                                                             @ZA24619 05770003
         MVC   2(1,14),0(&PREG)        MOVE KEY TO PARM LIST   @ZA24619 05790003
         AGO   .SVC                         GO ISSUE SVC       @ZA24619 05792003
.*                                                             @ZA24619 05794003
.**************************************************************@ZA24619 05796003
.*  KEYADDR=NOKEYADDR SPECIFIED - OVER RIDE PARAMETER LIST     @ZA24619 05798003
.**************************************************************@ZA24619 05800003
.SYN18   ANOP                               NOKEYADDR SPECIFIED@ZA24619 05802003
.*                                                             @ZA24619 05804003
         NI    1(14),X'FF'-X'80'       INDICATE NO KEY SUPPLIED@ZA24619 05806003
.*                                                             @ZA24619 05810003
.**************************************************************@ZA24619 05910003
.*  NOW ISSUE SVC AND EXIT FROM MACRO                          @ZA24619 05930003
.**************************************************************@ZA24619 05950003
.SVC     ANOP                                                  @ZA24619 05970003
         SVC   12                      SYNCH SVC               @ZA24619 05990003
.EXIT    MEXIT                                                 @ZA24619 06010003
.**************************************************************@ZA24619 06030003
.*  MNOTES SECTION                                             @ZA24619 06050003
.**************************************************************@ZA24619 06070003
.ERR1    ANOP                                                  @ZA24619 06160003
         MNOTE 12,'RESTORE PARAMETER SPECIFIED NOT YES OR NO'  @ZA24619 06210003
         MEXIT                                                 @ZA24619 06260003
.ERR2    ANOP                                                  @ZA24619 06310003
         MNOTE 12,'STATE PARAMETER SPECIFIED IS NOT SUPV OR PROB'       06350003
         MEXIT                                                 @ZA24619 06390003
.ERR3    ANOP                                                  @ZA24619 06430003
         MNOTE 12,'KEYADDR PARAMETER NOT SUPPORTED IN LIST FORM'        06470003
         MEXIT                                                 @ZA24619 06560003
.ERR4    ANOP                                                  @ZA24619 06610003
         MNOTE 12,'ENTRY POINT PARAMETER NOT VALID IN LIST FORM'        06660003
         MEXIT                                                 @ZA24619 06710003
.ERR5    ANOP                                                  @ZA24619 06760003
         MNOTE 12,'ENTRY POINT REQUIRED IF NOT LIST FORM'      @ZA24619 06810003
         MEXIT                                                 @ZA24619 06860003
.ERR6    ANOP                                                  @ZA24619 06910003
         MNOTE 12,'MF SPECIFIED WAS NEITHER E NOR L'           @ZA24619 06960003
         MEXIT                                                 @ZA24619 07010003
.ERR7    ANOP                                                  @ZA24619 07060003
         MNOTE 12,'MF=E SPECIFIED BUT NO PARAMETER LIST ADDR. SUPPLIED' 07110003
         MEXIT                                                 @ZA24619 07160003
         MEND                                                  @ZA24619 07210003
