         MACRO                                                          01000020
&NAME    TCHNG &TERMNME,&WRKAREA,&PASSWRD=                              02000020
.*C030000,610000-620000                                         SA51790 02500010
.*D070000-120000                                                SA51790 03000010
.*             VERSION DATED MARCH 23,1972                      SA51790 03500010
         AIF   ('&TERMNME' EQ '').ERR0                                  04000020
         AIF   ('&WRKAREA' EQ '').ERR0                                  05000020
&NAME    DS    0H                                                       06000020
.NOPLIST ANOP                                                           13000020
         AIF   ('&TERMNME'(1,1) EQ '(' OR K'&TERMNME LT 9).OK           14000020
         MNOTE 12,'*** IHB002 INVALID TERMNAME OPERAND SPECIFIED'       15000020
         MEXIT                                                          16000020
.ERR0    ANOP                                                           17000020
         MNOTE 12,'*** IHB004 REQUIRED OPERAND(S) NOT SPECIFIED'        18000020
         MEXIT                                                          19000020
.OK      ANOP                                                           20000020
         AIF   ('&WRKAREA'(1,1) EQ '(' OR K'&WRKAREA LT 9).OK1          21000020
         MNOTE 12,'*** IHB002 INVALID WORKAREA OPERAND SPECIFIED'       22000020
         MEXIT                                                          23000020
.OK1     ANOP                                                           24000020
         AIF   ('&TERMNME'(1,1) NE '(').TAD                             25000020
         ST    &TERMNME(1),IEDQ&SYSNDX  ADDRESS OF TERMINAL NAME        26000020
*                                       INTO PARAMETER LIST             27000020
         AGO   .WRK                                                     28000020
.TAD     ANOP                                                           29000020
         BAL   1,*+12 .                 ADDR OF TERMINAL NAME           30000020
         DC    CL8'&TERMNME' .          TERMINAL NAME                   31000020
         ST    1,IEDQ&SYSNDX .          ADDRESS OF TERMINAL NAME        32000020
*                                       INTO PARAMETER LIST             33000020
.WRK     ANOP                                                           34000020
         AIF   ('&WRKAREA'(1,1) NE '(').PASS                            35000020
         ST    &WRKAREA(1),IEDQ&SYSNDX+4 ADDRESS OF WORKAREA            36000020
*                                       INTO PARAMETER LIST             37000020
.PASS    ANOP                                                           38000020
         AIF   ('&PASSWRD' EQ '').LIST                                  39000020
         AIF   ('&PASSWRD' NE '' AND K'&PASSWRD LT 9).OK2               40000020
         MNOTE 12,'*** IHB002 INVALID PASSWORD OPERAND SPECIFIED'       41000020
         MEXIT                                                          42000020
.OK2     ANOP                                                           43000020
         AIF   ('&PASSWRD' EQ '').LIST                                  44000020
         BAL   1,*+12 .                 ADDRESS OF PASSWORD             45000020
         DC    CL8'&PASSWRD' .          UNSCRAMBLED PASSWORD            46000020
         ST    1,IEDQ&SYSNDX+8 .        ADDRESS OF PASSWORD             47000020
*                                       INTO PARAMETER LIST             48000020
.LIST    ANOP                                                           49000020
         CNOP  0,4                                                      50000020
         BAL   1,*+16 .                 ADDRESS OF PARAMETER LIST       51000020
IEDQ&SYSNDX DS 0F .                                                     52000020
         DC    A(0) .                   ADDRESS OF TERMINAL NAME        53000020
         AIF   ('&WRKAREA'(1,1) NE '(').OK3                             54000020
         DC    A(0) .                   ADDRESS OF WORKAREA             55000020
         AGO   .OK4                                                     56000020
.OK3     ANOP                                                           57000020
         DC    A(&WRKAREA) .            ADDRESS OF WORKAREA             58000020
.OK4     ANOP                                                           59000020
         DC    A(0) .                   ADDRESS OF PASSWORD             60000020
         LINK  EP=IEDQE3                                        SA51790 61000010
         MEND                                                           63000020
