         MACRO                                                          01000010
&NAME    TCOPY &TERMNME,&WRKAREA                                        02000010
.*C030000-110000,480000-490000                                  SA51790 05000010
.*A300000                                                      @ZA01104 05000110
.*             VERSION DATED MARCH 23,1972                      SA51790 08000010
         AIF   ('&TERMNME'(1,1) EQ '(' OR K'&TERMNME LT 9).OK           12000010
         MNOTE 12,'*** IHB002 INVALID TERMNAME OPERAND SPECIFIED'       13000010
         MEXIT                                                          14000010
.OK      ANOP                                                           15000010
         AIF   ('&WRKAREA'(1,1) EQ '(' OR K'&WRKAREA LT 9).OK1          16000010
         MNOTE 12,'*** IHB002 INVALID WORKAREA OPERAND SPECIFIED'       17000010
         MEXIT                                                          18000010
.ERR1    ANOP                                                           19000010
         MNOTE 12,'*** IHK078 TERMNAME OPERAND REGISTER NOTATION       *20000010
               INVALID - (1)'                                           21000010
         MEXIT                                                          22000010
.ERR2    ANOP                                                           23000010
         MNOTE 12,'*** IHB078 WORKAREA OPERAND REGISTER NOTATION       *24000010
               INVALID - (0)'                                           25000010
         MEXIT                                                          26000010
.ERR0    ANOP                                                           27000010
         MNOTE 12,'*** IHB004 REQUIRED OPERAND(S) NOT SPECIFIED'        28000010
         MEXIT                                                          29000010
.OK1     ANOP                                                           30000010
&NAME    DS    0H                                              @ZA01104 30500010
         AIF   ('&TERMNME'(1,1) NE '(').LA                              31000010
         AIF   ('&TERMNME' EQ '(0)').WRKA                               32000010
         AIF   ('&TERMNME' EQ '(1)').ERR1                               33000010
         LR    0,&TERMNME(1) .          ADDR OF TERMINAL NAME           34000010
         AGO   .WRKA                                                    35000010
.LA      ANOP                                                           36000010
         BAL   0,*+12 .                 ADDR OF TERMINAL NAME           37000010
         DC    CL8'&TERMNME' .          TERMINAL NAME                   38000010
.WRKA    ANOP                                                           39000010
         AIF   ('&WRKAREA'(1,1) NE '(').LA1                             40000010
         AIF   ('&WRKAREA' EQ '(1)').CALL                               41000010
         AIF   ('&WRKAREA' EQ '(0)').ERR2                               42000010
         LR    1,&WRKAREA(1) .          ADDRESS OF WORKAREA             43000010
         AGO   .CALL                                                    44000010
.LA1     ANOP                                                           45000010
         LA    1,&WRKAREA .             ADDRESS OF WORKAREA             46000010
.CALL    ANOP                                                           47000010
         LINK  EP=IEDQE1                                        SA51790 48000010
         MEND                                                           50000010
