         MACRO                                                          00100000
&NAME    TERMINAL  &QBY=,&DCB=,&RLN=,&COMP=NO,&TERM=,&QUEUES=,         X00100800
               &ADDR=,&LEVEL=(0),&CLOCK=,&ALIAS=,&ALTDEST=,&SECTERM=NO,X00101600
               &BUFSIZE=,&BFDELAY=,&OPDATA=,                           X00102400
               &QS=(DN,DR,TS,MO,MR,MN,34,18,2,66,82,98),&FEATURE=,     X00103200
               &TBLKSZ=,&DIALNO=,&NTBLKSZ=,&CINTVL=,&UTERM=NO,         X00104000
               &DVCID=,&QCNTRL=,&LMD=NO,&CTBMAX=,&MB=NO,               X00104800
               &SCRSIZE=(12,40),&GROUP=,&RETRY=,&ACTIVE=,        Y06327X00105600
               &SPECOUT=,&GPCLSTR=,&TCMSESN=,&USS=NONE,&FMPROF=,       *00106400
               &TSPROF=,&BKUPNME=,&IPLTXID=,&IPLAUTO=NO,&DUMPDCB=,     *00107200
               &DMPAUTO=NO,&BACKUP=NO,&BRINGUP=NO,&CKPTDCB=    @Y17XAFF 00108000
.*A000000-999999                                               @X31X8F0 00108800
.*C244680                                                      @OY16095 00109200
.*                                                                      00110300
         GBLA  &IEDQCH(128),&IEDQAR(64),&IEDQZF                         00111000
         GBLA  &IEDQCH1(128),&IEDQRL                           @Y17XAFF 00111700
         GBLB  &IEDQFL(16),&IEDQZA(64),&IEDQNO,&IEDQIHB(2),&IEDQZZ(16)  00112400
         GBLB  &IEDQRN(8),&IEDQCOD(8)                          @Y17XAFF 00113100
         GBLB  &IEDQQEF(8) .                                     S22025 00113800
         GBLB  &IEDQMHF(64)                                    @OZ37662 00114182
         GBLB  &IEDQTAC                                        @OZ41718 00114382
         GBLC  &IEDQAD(5),&IEDQSV(8),&IEDQCTM                   SA57685 00114500
         GBLC  &IEDQSV1(50),&IEDQGN                            @Y17XAFF 00115200
         LCLA  &A,&S,&L,&P,&LP,&CTBCNT .                         S22025 00115900
         LCLB  &NO,&NB,&B(8),&CONC .                           @OZ41718 00116682
         LCLB  &GPT,&SPCO,&BFRD                                  S22024 00117300
         LCLB  &LUNT,&LINEMSG,&QBYMSG                          @ZM04782 00118000
         LCLC  &CHA,&IEDQID(2),&IEDQCTB(2) .                     S22025 00118700
         LCLC  &CHB,&CHC,&CHD                                    S22024 00119400
         LCLC  &SAVE                                           @OZ37662 00119782
.******************* MICROFICHE FLAGS *********************** SUPT CODE 00120100
.*C638400,646000,655000                                          S22027 00120800
.*A636000-637800                                                 S22027 00121500
.*A042000-044400,777500                                          S99528 00122200
.*C771700-773100                                                 S99528 00122900
.*A043600                                                        S99228 00123600
.*C027000,030000,044100,139890-140540,262500,264000,265500       S99228 00124300
.*C267000,270000,777000-777500                                   S99228 00125000
.*A039000,2888000-XXXXXX,669600-671400                           S22029 00125700
.*C023400,261000-266500,285000,312000,780000                     S22029 00126400
.*D041000,300000-306000,669600-671400                            S22029 00127100
.*A019000,022000,127000-128000,138020-139840,152000-155400       S22025 00127800
.*A184000,196000,199000,202000-203000,246000-259800,310000       S22025 00128500
.*A475200-476960,582500-583000,595000,621200-622600,658000       S22025 00129200
.*A706000,712000                                                 S22025 00129900
.*C021000,162000,201000                                          S22025 00130600
.*C030000-030800,138000,150000-151000,174000-175000              S22025 00131300
.*C189000-192600,300000-301000,339000-350200,576000-578200       S22025 00132000
.*C591000,627000,633000,645000-646000,654000-655000,669000       S22025 00132700
.*C738000,768000-770200                                          S22025 00133400
.*D033000-039000                                                 S22025 00134100
.*A474000                                                        A50220 00134800
.*A042000                                                        A47143 00135500
.*C738000                                                        A47143 00136200
.*C747000                                                        S21101 00136900
.*C108000-114000                                                 A42365 00137600
.*C474000                                                       SA56918 00138300
.*C381000,384000                                                SA50203 00139000
.*A594000                                                       SA50203 00139700
.*C738000                                                        A52954 00140400
.*C043200,044160-044260,384700,594400                           SA56318 00141100
.*C030200,030826-041500,771000     SEE IEDQCKO/IEDQGCH          SA57685 00141800
.*D022000,030850,042000,706000,712000,                          SA57685 00142500
.*C021000,030820,147000,159000,165000,171000,186000              S22024 00143200
.*C189000-192000,193200-194400,194640-194760,204000-207000       S22024 00143900
.*C282000,576000,579000,594000,642000,651000,657000-663000       S22024 00144600
.*C669000,594200                                                 S22024 00145300
.*A024000,027000,030200,030600,128000,396000,399000,637800       S22024 00146000
.*A696000,699000                                                 S22024 00146700
.*A103000,738000,738500,753000                                   Y05330 00147400
.*C006000-012000,030823,108000-126000,138100-138130,381000,      Y05330 00148100
.*C408000,429000,450000,474090,480000,483000,495000,585000,      Y05330 00148800
.*C765000-770200                                                 Y05330 00149500
.*D138140,354000,387000-393000,411000-423000,432000-444000,      Y05330 00150200
.*D453000-462000,474180,474360,474540-474810,486000-487000,      Y05330 00150900
.*D498000,555000-561000                                          Y05330 00151600
.*C171000,732600                                                 Y06327 00152300
.*A172000                                                        Y06327 00153000
.*A738300                                                        X01004 00153700
.*D738500                                                        X01004 00154400
.*A246000                                                      SA66363  00155100
.*C594000                                                       OX01432 00155800
.*D585000                                                       OX01432 00156500
.*A475200                                                       SA66922 00157200
.*C475200                                                       SA66922 00157900
.*A030700,147250,147650,696150                                   X03039 00158600
.*C030823,147400,148200,384700,594400,638020,696400,696650       X03039 00159300
.*C144000,148350,165000,216000,219000,289000,324000,369000     @Z30X8FG 00160000
.*C543000                                                      @Z30X8FG 00160700
.*A396000,475100                                                 X03039 00161400
.*C173100                                                      @XA06352 00162100
.*A107400,477000,480000,655000,669000                          @X50X9FH 00162800
.*C022000,655000,669000                                        @X50X9FH 00163500
.*D045000                                                      @X50X9FH 00164200
.*C696400                                                      @ZA03106 00164900
.*A657050                                                      @XA09782 00165600
.*C285000,290000                                               @SA75764 00166300
.*D173100-173130                                               @OY11968 00167000
.*A771000                                                      @Y17XAFF 00167700
.*D477200-479000                                               @Y17XAFF 00168400
.*C600000,159950,140440,655000-656000                          @Y17XAFF 00169100
.*C022000,027050,030250,024050,107400,147700,675000,670000     @Y17XAFF 00169800
.*C696000-700000,711000,147950,148000-148050,159100,159050     @Y17XAFF 00170500
.*C159200,172400,186600,202500,475200,594200,637900,357000     @Y17XAFF 00171200
.*C669000                                                      @SA05843 00171900
.*C594680                                                      @OY16376 00172500
.*A656600                                                      @OZ31432 00175582
.*A001816                                                      @OZ37276 00175682
.*C001824                                                      @OZ37276 00175782
.*A002768                                                      @OZ36902 00175882
.*A001138,001194,577000,697000                                 @OZ37662 00175982
.*C337000,656640-656800                                        @OZ37662 00176082
.*A001141,001864,474700,475320                                 @OZ41718 00176682
.*C001166,731000                                               @OZ41718 00177282
.*C656740                                                      @OZ43705 00177882
.*C109000-113000                                               @OZ46458 00177982
.*C718000                                                      @OZ44387 00178082
.*A002264                                                      @OZ48027 00178182
.*D474770-474910                                               @OZ49094 00178282
.*A730000                                                      @OZ49094 00178482
.*PACKAGE ERROR                                                @OZ49699 00179282
.*A475000                                                      @OZ52041 00179382
.*D730250-730750                                               @OZ52041 00179482
.*A001824                                                      @OX27983 00179582
.*D001832                                                      @OX27983 00179682
&A       SETA  N'&ALIAS+1                                        Y05330 00180000
         AIF   (NOT &IEDQZA(21)).GO                              S99228 00180382
         MNOTE 12,'*** IED901 ALL TERMINAL MACROS MUST PRECEDE TSINPUT' 00180682
.GO      AIF   ('&TERM' EQ 'LUNT').RESETSK                     @OZ37276 00180982
&IEDQAR(41)  SETA 0                     CLOCK                  @OZ37276 00181282
&IEDQAR(42)  SETA 0                     CINTVL                 @OZ37276 00181582
.RESETSK ANOP                                                  @OZ48100 00181882
         AIF   ('&TERM' EQ '').COK                             @OX27983 00182182
         AIF   ((&IEDQRN(4) AND NOT &IEDQRN(3)) OR (NOT &IEDQRN(4)     *00182582
               AND NOT &IEDQRN(3))).AR        MIXSNA OR NOSNA? @OZ48100 00182682
         AIF   ('&TERM' EQ 'LINE' OR '&TERM' EQ 'LUNT' OR              *00182782
               '&TERM' EQ 'PUNT' OR T'&GROUP NE 'O').AR        @OZ48100 00182882
         MNOTE 12,'PRE-SNA DEVICE CODED BUT INTRO HAS ONLYSNA CODED'    00182982
.*                                                             @OZ48100 00183082
.AR      ANOP                                                  @OZ48100 00183182
         AIF   ('&SECTERM' NE 'YES' OR '&TERM'(4,1) NE 'C').COK  S99228 00183382
         AIF   ('&TERM'(1,4) EQ '274C').COK                      S99228 00184000
         MNOTE 12,'*** IED902 TYPE=&TERM AND SECTERM=YES ARE MUTUALLY E*00184800
               XCLUSIVE'                                        SA56318 00185600
.COK     ANOP  .                                                 S99228 00186400
&IEDQSV1(17) SETC '&TERM'                                      @OZ41718 00186882
.A1      AIF   (&IEDQAR(10) EQ 0).C0                                    00187200
         AIF   (&IEDQAR(10) EQ 3 AND '&NAME' EQ '&IEDQSV(1)').OPT       00188000
         IEDQGCH 3                                                      00188800
.C0      AIF   (&IEDQZA(55)).C1                                         00189600
         AIF   ('&IEDQZA(54)' EQ '&IEDQZA(55)' AND '&IEDQZA(53)'       X00190400
               EQ '&IEDQZA(55)').A3                                     00191200
         MNOTE 12,'***IHB315 SEQUENCE ERROR-MUST PRECEDE LAST ENTRY    X00192000
               SPEC. BY TTABLE MACRO'                                   00192800
         AGO   .A4                                                      00193600
.A3      MNOTE 12,'***  IHB070 SEQUENCE ERROR-MUST FOLLOW TTABLE MACRO' 00194400
.A4      ANOP                                                           00195200
&IEDQNO  SETB  1                                                        00196000
.C1      AIF   ('&NAME' NE '').C1A                                      00196800
         MNOTE 12,'*** IHB076 MACRO NAME FIELD BLANK- NAME REQUIRED'    00197600
&IEDQNO  SETB  1                                                        00198400
.C1A     AIF   (K'&NAME LE &IEDQAR(1)-3).C1B                            00199200
&S       SETA  &IEDQAR(1)-3                                             00200000
         MNOTE 4,'*** IHB302 NAME FIELD LONG- TRUNCATED TO &S CHARACTER*00200800
               S'                                                       00201600
.C1B     ANOP                                                    Y05330 00202400
&A       SETA  &A-1                                              Y05330 00203200
         AIF   (&A EQ 0).C1B1                                    Y05330 00204000
         AIF   (K'&ALIAS(&A) LE &IEDQAR(1)-3).C1B                Y05330 00204800
         AIF   (K'&ALIAS(&A) LE &IEDQAR(1)+&IEDQAR(1)-4 AND '&ALIAS(&A)X00205600
               '(K'&ALIAS(&A)-1,1) EQ '''').C1B                  Y05330 00206400
 MNOTE 4,'*** IHB302 ALIAS &ALIAS(&A) LONG-TRUNCATED TO &S CHARACTERS'  00207200
         AGO   .C1B                                              Y05330 00208000
.C1B1    ANOP                                                  @Y17XAFF 00208800
.*       IF 270X ONLY, DO NOT ALLOW TERM=LINE,LNCP,PUNT, SSCP, OR LUNT  00209600
         AIF   (&IEDQRN(1)).A001                               @Y17XAFF 00210400
         AIF   ('&TERM' NE 'LINE' AND '&TERM' NE 'LNCP' AND            *00211200
                '&TERM' NE 'PUNT' AND '&TERM' NE 'SSCP' AND            *00212000
                '&TERM' NE 'LUNT').A001                        @PI02879 00212800
         MNOTE 12,'*** IED950  TERM=&TERM INVALID FOR DEFINED SYSTEM.'  00213600
.*                                                             @Y17XAFF 00214400
.A001    AIF   ('&TERM' EQ 'LNCP').A003                        @Y17XAFF 00215200
.*                                                             @Y17XAFF 00216000
.*       NCP ONLY OPERANDS SHOULD NOT BE CODED IF TERM NE LNCP @Y17XAFF 00216800
.*                                                             @Y17XAFF 00217600
         AIF   (T'&BKUPNME NE 'O' AND T'&IPLTXID NE 'O' AND            *00218400
               T'&DUMPDCB NE 'O' AND T'&CKPTDCB NE 'O').A002   @Y17XAFF 00219200
         AIF   ('&IPLAUTO' EQ 'NO' AND '&DMPAUTO' EQ 'NO' AND          *00220000
               '&BACKUP' EQ 'NO' AND '&BRINGUP' EQ 'NO').A003  @Y17XAFF 00220800
.A002    MNOTE 4,'*** IED952 UNNECESSARY OPERAND(S) CODED FOR TERM=&TER*00221600
               M'                                              @YM08519 00222000
.*       ONLY LOOK AT NEW TERM EQ VALUES                       @Y17XAFF 00222400
.A003    AIF   ('&TERM' NE 'LNCP' AND '&TERM' NE 'SSCP' AND            *00223200
                '&TERM' NE 'PUNT' AND '&TERM' NE 'LINE').A401  @Y17XAFF 00224000
.*                                                             @Y17XAFF 00224800
.*       INSURE THAT NO UNNECESSARY OPERANDS HAVE BEEN CODED   @Y17XAFF 00225600
.*                                                             @Y17XAFF 00226400
&IEDQFL(9) SETB 0               RESET CONCENTRATOR BIT OFF FOR @OZ48027 00226682
.*                              TERM= LNCP,SSCP,LINE,PUNT      @OZ48027 00226882
         AIF   (T'&QBY     EQ 'O' AND T'&ALTDEST EQ 'O' AND            *00227200
                T'&QUEUES  EQ 'O' AND T'&ADDR    EQ 'O' AND            *00228000
                T'&CLOCK   EQ 'O').A005                        @Y17XAFF 00228800
.A004    MNOTE 4,'*** IED952 UNNECESSARY OPERAND(S) CODED FOR TERM=&TER*00229600
               M'                                              @YM08519 00230000
         AGO   .A006                                                    00230400
.A005    AIF   (T'&BUFSIZE NE 'O' OR  T'&BFDELAY NE 'O' OR             *00231200
                T'&FEATURE NE 'O' OR  T'&TBLKSZ  NE 'O' OR             *00232000
                T'&DIALNO  NE 'O' OR  T'&NTBLKSZ NE 'O').A004  @Y17XAFF 00232800
         AIF   (T'&CINTVL  NE 'O' OR  T'&DVCID   NE 'O' OR             *00233600
                T'&QCNTRL  NE 'O' OR  T'&CTBMAX  NE 'O' OR             *00234400
                T'&RETRY   NE 'O' OR  T'&SPECOUT NE 'O').A004  @Y17XAFF 00235200
         AIF   (T'&GPCLSTR NE 'O' OR  T'&ACTIVE(2) NE 'O').A004         00236000
.*                                                             @Y17XAFF 00236800
         AIF   ('&COMP'    NE 'NO'  OR '&LEVEL'    NE '(0)' OR         *00237600
                '&SECTERM' NE 'NO'  OR '&UTERM'    NE 'NO'  OR         *00238400
                '&LMD'     NE 'NO'  OR '&MB'       NE 'NO').A004        00239200
.*                                                             @Y17XAFF 00240000
         AIF   ('&SCRSIZE' NE '(12,40)').A004                  @Y17XAFF 00240800
.*                                                             @Y17XAFF 00241600
.*       IF LNCP CHECK FOR MORE UNNECESSARY OPERANDS           @Y17XAFF 00242400
.*                                                             @Y17XAFF 00243200
.A006    AIF   ('&TERM' NE 'LNCP').A101                        @Y17XAFF 00244000
         AIF   (T'&GROUP   EQ 'O' AND T'&TCMSESN EQ 'O' AND            *00244800
                T'&RLN     EQ 'O' AND '&USS'     EQ 'NONE').A007        00245600
.*                                                             @Y17XAFF 00246400
         MNOTE 4,'*** IED952 UNNECESSARY OPERAND(S) CODED FOR TERM=&TER*00247200
               M'                                              @YM08519 00247600
.*                                                             @Y17XAFF 00248000
.*                                                             @Y17XAFF 00248800
.*       VALIDATE  LNCP OPERANDS                               @Y17XAFF 00249600
.*                                                             @Y17XAFF 00250400
.A007    AIF   (T'&DCB NE 'O').A008     IS DCB CODED           @Y17XAFF 00251200
         MNOTE 8,'*** IED953 DCB OPERAND MISSING.'             @Y17XAFF 00252000
&IEDQNO  SETB  1                        SET NO GO SWITCH       @Y17XAFF 00252800
.A008    ANOP                                                  @Y17XAFF 00253600
&IEDQSV1(1) SETC '&BKUPNME'             WORK WITH BKUPNME      @Y17XAFF 00254400
&IEDQSV1(2) SETC '&IPLTXID'             WORK WITH IPLTXID      @Y17XAFF 00255200
&IEDQSV1(3) SETC '&DUMPDCB'             WORK WITH DUMPDCB      @Y17XAFF 00256000
&IEDQSV1(4) SETC '&CKPTDCB'             WORK WITH CKPTDCB      @Y17XAFF 00256800
         AIF   ('&IPLAUTO' EQ 'YES').A013 WORK WITH IPLAUTO    @Y17XAFF 00257600
         AIF   ('&IPLAUTO' EQ 'NO').A014                       @Y17XAFF 00258400
         MNOTE 4,'*** IED954 INVALID IPLAUTO OPERAND, WILL USE DEFAULT' 00259200
.*                                                             @Y17XAFF 00260000
         AGO   .A014                                           @Y17XAFF 00260800
.A013    ANOP                                                           00261600
&IEDQZA(56) SETB 1                      SET GLOBAL             @Y17XAFF 00262400
.A014    AIF   ('&DMPAUTO' EQ 'YES').A015 WORK WITH DMPAUTO    @Y17XAFF 00263200
         AIF   ('&DMPAUTO' EQ 'NO').A016                       @Y17XAFF 00264000
         MNOTE 4,'*** IED955 INVALID DMPAUTO OPERAND, WILL USE DEFAULT' 00264800
.*                                                             @Y17XAFF 00265600
         AGO   .A016                                           @Y17XAFF 00266400
.A015    ANOP                                                  @Y17XAFF 00267200
&IEDQZA(57) SETB 1                      SET GLOBAL             @Y17XAFF 00268000
.A016    AIF   ('&BACKUP' EQ 'YES').A017 WORK WITH BACKUP      @Y17XAFF 00268800
         AIF   ('&BACKUP' EQ 'NO').A018                        @Y17XAFF 00269600
         MNOTE 4,'*** IED956 INVALID BACKUP OPERAND, WILL USE DEFAULT'  00270400
.*                                                             @Y17XAFF 00271200
         AGO   .A018                                           @Y17XAFF 00272000
.A017    ANOP                                                  @Y17XAFF 00272800
&IEDQZA(59) SETB 1                                             @Y17XAFF 00273600
.A018    AIF   ('&BRINGUP' EQ 'YES').A019  WORK WITH BRINGUP   @Y17XAFF 00274400
         AIF   ('&BRINGUP' EQ 'NO').A020                       @Y17XAFF 00275200
         MNOTE 4,'*** IED957 INVALID BRINGUP OPERAND, WILL USE DEFAULT' 00276000
.*                                                             @Y17XAFF 00276800
         AGO   .A020                                           @OZ36902 00277282
.A019    ANOP                                                  @Y17XAFF 00277600
&IEDQZA(58) SETB 1                      SET GLOBAL             @Y17XAFF 00278400
.A020    AIF   (&IEDQNO).EXIT           IF SERIOUS ERROR, BRCH @Y17XAFF 00279200
.*       SET LNCP GLOBALS                                      @Y17XAFF 00280000
&IEDQFL(13) SETB 1                      DEV DEP FLAG           @Y17XAFF 00280800
&IEDQCOD(4) SETB 1                      NCP CODED              @Y17XAFF 00281600
&IEDQZA(63) SETB 1                      TTE PREFIX NEEDED      @Y17XAFF 00282400
.*       GO CREATE LNCP QCB                                    @Y17XAFF 00283200
         IEDQTQ &DCB,TERM=LNCP                                 @Y17XAFF 00284000
.*       GO CREATE LNCP DCT ENTRY                              @Y17XAFF 00284800
         IEDQCHI LNCP,FMPROF=&FMPROF,TSPROF=&TSPROF            @Y17XAFF 00285600
         AGO   .NOBFR                   GO GENERATE TNT & TTE  @Y17XAFF 00286400
.A101    AIF   ('&TERM' NE 'SSCP').A200                        @Y17XAFF 00287200
.*                                                             @Y17XAFF 00288000
.*       VALIDATE SSCP OPERANDS                                @Y17XAFF 00288800
.*                                                                      00289600
         AIF   (NOT &IEDQCOD(5)).A102                          @Y17XAFF 00290400
         MNOTE 12,'*** IED958 ONLY ONE SSCP TTE SHOULD BE CODED.'       00291200
.*                                                             @Y17XAFF 00292000
         MEXIT                                                 @Y17XAFF 00292800
.A102    AIF   (T'&GROUP   NE 'O' OR  T'&TCMSESN   NE 'O' OR           *00293600
                T'&RLN     NE 'O' OR  T'&DCB       NE 'O' OR           *00294400
                T'&ACTIVE  NE 'O').A103                        @Y17XAFF 00295200
         AIF   (T'&FMPROF  EQ 'O' AND T'&TSPROF    EQ 'O' AND          *00296000
                '&USS'     EQ 'NONE').A104                     @Y17XAFF 00296800
.A103    MNOTE 4,'*** IED952 UNNECESSARY OPERAND(S) CODED FOR TERM=&TER*00297600
               M'                                              @YMO8519 00298000
.A104    ANOP                                                  @Y17XAFF 00298400
&IEDQCOD(5) SETB 1                      SET SSCP CODED BIT     @Y17XAFF 00299200
&IEDQZA(63) SETB 1                      TTE PREFIX NEEDED      @Y17XAFF 00300000
         AIF   (&IEDQNO).EXIT                                  @ZM04784 00300200
         IEDQCHI SSCP                                          @PI05737 00300400
         AGO   .NOBFR                   GO GENERATE TNT AND TTE@Y17XAFF 00300800
.A200    AIF   ('&TERM' NE 'LINE').A301                        @Y17XAFF 00301600
.*                                                             @Y17XAFF 00302400
.*       VALIDATE TERM=LINE OPERANDS                           @Y17XAFF 00303200
.*                                                             @Y17XAFF 00304000
         AIF   (T'&FMPROF  EQ 'O' AND T'&TSPROF  EQ 'O' AND            *00304800
                T'&TCMSESN EQ 'O' AND '&USS'     EQ 'NONE' AND         *00305600
                T'&DCB     EQ 'O').A201                        @Y17XAFF 00306400
         MNOTE 4,'*** IED952 UNNECESSARY OPERAND(S) CODED FOR TERM=&TER*00307200
               M'                                              @YM08519 00307600
.*                                                             @Y17XAFF 00308000
.A201    AIF   (T'&RLN NE 'O').A202                            @Y17XAFF 00308800
         MNOTE 12,'*** IHB001 NEED RLN OPERAND.'               @Y17XAFF 00309600
&IEDQNO  SETB  1                        SET NO GO SWITCH       @Y17XAFF 00310400
         AGO   .A206                                           @Y17XAFF 00311200
.A202    AIF   (&RLN GE 1 AND &RLN LE 255).A203  VALIDATE RLN  @Y17XAFF 00312000
.A204    MNOTE 12,'*** IED913 INVALID RLN OPERAND.'            @Y17XAFF 00312800
&IEDQNO  SETB  1                        SET NO GO SWITCH       @Y17XAFF 00313600
         AGO   .A205                                           @Y17XAFF 00314400
.A203    AIF   (&RLN NE &IEDQRL).A204   IS RLN CONTIGUOUS      @Y17XAFF 00315200
&IEDQRL  SETA  &IEDQRL+1                UPDATE COUNTER         @Y17XAFF 00316000
.A205    AIF   (T'&GROUP NE 'O').A206   VALIDATE GROUP OPERAND @Y17XAFF 00316800
         MNOTE 12,'*** IED961 NEED GROUP OPERAND.'                      00317600
&IEDQNO  SETB  1                        SET NO GO SWITCH       @Y17XAFF 00318400
         AGO   .A207                                           @Y17XAFF 00319200
.A206    AIF   ('&GROUP' EQ '&IEDQGN').A207                    @Y17XAFF 00320000
         MNOTE 12,'*** IED912 SEQ ERR-MUST FOLLOW APPROPRIATE GROUP MAC*00320800
               RO.'                                            @Y17XAFF 00321600
&IEDQNO  SETB  1                        SET NO GO SWITCH       @Y17XAFF 00322400
.A207    AIF   (&IEDQNO).EXIT           IF SERIOUS ERROR, BRCH @Y17XAFF 00323200
.*       GO CREATE QCB                                         @Y17XAFF 00324000
         IEDQTQ &GROUP,,,&RLN,TERM=LINE                        @Y17XAFF 00324800
.*       SET APPROPRIATE INDICATORS                            @Y17XAFF 00325600
&NB      SETB  1                        SET LINE IND BIT       @Y17XAFF 00326400
&IEDQCOD(2) SETB 1                      TERM=LINE CODED        @Y17XAFF 00327200
&IEDQZA(63) SETB 1                      TTE PREFIX NEEDED      @Y17XAFF 00328000
&IEDQCOD(3) SETB 0                      RESET PUNT CODED IND   @Y17XAFF 00328800
.*       GO CREATE DCT ENTRY,IF NECESSARY                      @Y17XAFF 00329600
         IEDQCHI LINE                                                   00330400
         AGO   .NOBFR                                          @Y17XAFF 00331200
.A301    AIF   ('&TERM' NE 'PUNT').A401                        @Y17XAFF 00332000
.*                                                             @Y17XAFF 00332800
.*       VALIDATE TERM=PUNT OPERANDS                           @Y17XAFF 00333600
.*                                                             @Y17XAFF 00334400
         AIF   (T'&GROUP   EQ 'O' AND T'&TCMSESN EQ 'O' AND            *00335200
                T'&RLN     EQ 'O' AND T'&DCB     EQ 'O' AND            *00336000
                '&USS'     EQ 'NONE').A302                     @Y17XAFF 00336800
         MNOTE 4,'*** IED952 UNNECESSARY OPERAND(S) CODED FOR TERM=&TER*00337600
               M'                                              @YM08519 00338000
.*                                                             @Y17XAFF 00338400
.A302    AIF   (&IEDQCOD(2)).A303                              @Y17XAFF 00339200
         MNOTE 12,'*** IED963 SEQ ERR-PUNT TTE MUST FOLLOW A LINE TERMI*00340000
               NAL MACRO AND A GROUP MACRO.'                   @Y17XAFF 00340800
         AGO   .EXIT                    FINISH MACRO           @Y17XAFF 00341600
.A303    ANOP                                                  @Y17XAFF 00342400
.*       GO CREATE QCB                                         @Y17XAFF 00343200
         IEDQTQ TERM=PUNT                                      @Y17XAFF 00344000
.*       SET GLOBAL VARIABLES                                  @Y17XAFF 00344800
&IEDQZA(63) SETB 1                      TTE PREFIX NEEDED      @Y17XAFF 00345600
&IEDQCOD(3) SETB 1                      PUNT HAS BEEN CODED    @Y17XAFF 00346400
.*       GO CREATE DCT ENTRY                                   @Y17XAFF 00347200
         IEDQCHI PUNT,FMPROF=&FMPROF,TSPROF=&TSPROF                     00348000
         AGO   .NOBFR                                          @Y17XAFF 00348800
.A401    AIF   ('&TERM' NE 'LUNT').A1000                       @Y17XAFF 00349600
.*                                                             @Y17XAFF 00350400
.*       VALIDATE TERM=LUNT OPERANDS                           @Y17XAFF 00351200
.*                                                             @Y17XAFF 00352000
         AIF   (T'&DCB     EQ 'O').A402                        @Y17XAFF 00352800