         MACRO                                                          05000020
&NAME    TERRSET  &BIT=ON                                               10000010
         GBLB  &IEDQZA(64)                                              15000020
.*             VERSION DATED NOVEMBER 04,1976                  @OY14527 20000010
.*A500000,650000,700000                                        @OY14527 22000010
         SPACE                                                          25000020
         AIF   (NOT &IEDQZA(5) AND (&IEDQZA(1) OR &IEDQZA(2))).OK       30000020
         MNOTE 12,'***  IHB070  SEQUENCE ERROR-MUST FOLLOW INHDR, INBUF*35000020
               , OUTHDR OR OUTBUF MACRO'                                40000020
         AGO   .MEND                                                    45000020
.OK      ANOP                                                           50000020
         AIF   ('&BIT' EQ 'ON' OR '&BIT' EQ 'OFF').BITOK       @OY14527 51000010
         MNOTE 4,'***  IHB086 BIT=  INVALID KEYWORD, ON ASSUMED'        52000010
.BITOK   ANOP                                                  @OY14527 53000010
&NAME    L     1,IEDADBUF .             GET BUFFER ADDRESS FROM AVT     55000020
         L     1,12(1) .                GET LCB ADDR FROM BUFFER        60000020
         L     1,92(,1) .               GET SCB ADDRESS                 65000020
         AIF   ('&BIT' EQ 'OFF').OFF                           @OY14527 67000010
         OI    18(1),X'08' .            TURN ON USER ERROR BIT          70000020
         AGO   .MEND                                           @OY14527 71000010
.OFF     ANOP                                                           72000010
         NI    18(1),X'F7'              TURN OFF USER BIT      @OY14527 73000010
.MEND    SPACE 2                                                        75000020
         MEND                                                           80000020
