         MACRO                                                          00700020
&NAME    TGET  &BFF,&SIZE,&EDIT,&WAIT,&MF=                     @G76XRYU 00750003
.*                                                                 @01A 01400003
.* $MAC(TGET) COMP(Y@) PROD(TIOC):                                 @01A 01450003
.*                                                                 @01A 01500003
.* CHANGE ACTIVITY =                                               @01A 01550003
.* A000000-999999                                              @G76XR00 01600003
.* C44364000,44376000                                          @OZ42972 01650003
.* $01=OZ43111  ETI1106  79.11.28  579667:                         @01A 01700003
.* C448976                                                     @ZA44765 01725003
.*A449080,452744                                               @OZ46729 01725136
.*C449080,449918-450546,458396-458710                          @OZ48875 01725236
.*A447300                                                      @OZ49617 01725336
.*C469700                                                      @OZ49617 01725436
.*C450608                                                      @OZ51683 01725536
.*C018000,447312-447348                                        @OZ56262 01733636
.*A447660                                                      @OZ56262 01741736
.*A178000                                                      @OZ72869 01744436
.*                                                                 @01A 01750003
         LCLA  &FLAGON,&FLAGOFF,&OPT,&BFFPOS                   @OZ56262 01800036
         LCLB  &RET,&E,&W                                          @01C 01850003
         LCLC  &ERROPT,&NDX                                    @G76XRYU 17500003
&NDX     SETC  '&SYSNDX'                                       @G76XRYU 17550003
&OPT     SETA  X'80'                                                    17800003
&FLAGON  SETA  128                  ..SET TGET OPT FOR EX FORM @OZ72869 17825036
&FLAGOFF SETA  145                     ..SET FOR AND OPERATION @G76XRYU 17850003
         AIF   (N'&SYSLIST LE 4).POSOPOK  ..# POS. OPERANDS OK @G76XRYU 17900003
         MNOTE 12,'IHB300 EXCESSIVE POSITIONAL OPERANDS SPECIFIED'      18200003
         MEXIT                                                 @G76XRYU 18250003
.POSOPOK ANOP                            ..CHECK VALID MF PARM @G76XRYU 18300003
         AIF   ('&MF' EQ '').FORMOK                            @G76XRYU 18350003
         AIF   ('&MF' EQ 'I' OR '&MF' EQ 'L' OR ('&MF(1)' EQ 'E' AND N'X18400003
               &MF EQ 2)).FORMOK                               @G76XRYU 18450003
         MNOTE 12,'IHB303 INVALID OPERAND MF=&MF'              @G76XRYU 18500003
         MEXIT                                                 @G76XRYU 18550003
.FORMOK  ANOP                                                  @G76XRYU 18600003
         AIF   (('&BFF' EQ '' OR '&SIZE' EQ '') AND ('&MF' EQ '' OR '&MX18650003
               F' EQ 'I')).ERROR1   ..STANDARD FORM ERROR..    @G76XRYU 18700003
         AIF   ('&EDIT' EQ 'R').RF      CHECK FOR R FORM                19600020
         AIF   ('&EDIT' EQ '').WAIT       SKIP IF NULL                  20300020
         AIF   ('&EDIT' EQ 'EDIT').EDI    SET EDIT                      21000020
         AIF   ('&EDIT' EQ 'ASIS').ASI    SET ASIS                      21700020
         AIF   ('&EDIT' EQ 'WAIT').WAI    SET WAIT (EDIT PARM OMITTED)  21750003
         AIF   ('&EDIT' EQ 'NOWAIT').NOW  SET NOWAIT (EDIT OMITTED)     22400003
&ERROPT  SETC  '&EDIT'                  SET FOR ERROR MSG               23100003
         AGO   .ERROR3                                                  23800020
.WAIT    ANOP                                                           24500020
&RET     SETB  1                                                        25200020
         AIF   ('&WAIT' EQ '').CHKFORM    SKIP IF NULL                  25250003
         AIF   ('&WAIT' EQ 'EDIT').EDI    SET EDIT                      26600020
         AIF   ('&WAIT' EQ 'ASIS').ASI    SET ASIS                      27300020
         AIF   ('&WAIT' EQ 'WAIT').WAI    SET WAIT                      28000020
         AIF   ('&WAIT' EQ 'NOWAIT').NOW  SET NOWAIT                    28700020
&ERROPT  SETC  '&WAIT'                  SET FOR ERROR MSG               29000020
         AGO   .ERROR3                                                  29400020
.EDI     ANOP                                                           30100020
         AIF   (&E).ERROR2              DUP OPTION                      30800020
&E       SETB  1                        EDIT OPTION SPECFIED            31500020
&FLAGOFF SETA  &FLAGOFF-1               EDIT FOR EXEC FORM     @G76XRYU 31550003
         AGO   .RET                                                     32200020
.ASI     ANOP                                                           32900020
         AIF   (&E).ERROR2              DUP OPTION                      33600020
&E       SETB  1                        EDIT OPTION SPECFIED            34300020
&OPT     SETA  &OPT+1                   ASIS OPTION            @G76XRYU 34350003
&FLAGON  SETA  &FLAGON+1                SET ASIS FOR EXECUTE   @G76XRYU 35000003
         AGO   .RET                                                     35700020
.WAI     ANOP                                                           36400020
         AIF   (&W).ERROR2              DUP OPTION                      37100020
&W       SETB  1                        WAIT OPTION SPECIFIED           37800020
&FLAGOFF SETA  &FLAGOFF-16              SET WAIT OPTION FOR EX @G76XRYU 37850003
         AGO   .RET                                                     38500020
.NOW     ANOP                                                           39200020
         AIF   (&W).ERROR2              DUP OPTION                      39900020
&W       SETB  1                        WAIT OPTION SPECIFIED           40600020
&OPT     SETA  &OPT+16                  NOWAIT OPTION          @G76XRYU 40650003
&FLAGON  SETA  &FLAGON+16               SET NOWAIT OPT FOR EX  @G76XRYU 41300003
         AGO   .RET                                                     42000020
.RET     ANOP                                                           42700020
         AIF   (&RET).CHKFORM                                  @G76XRYU 42750003
         AGO   .WAIT                    NEXT POSITION                   44100020
.CHKFORM ANOP                                                  @G76XRYU 44106003
         AIF   ('&MF' EQ 'L').LFORM    ..LIST EXPANSION...     @G76XRYU 44112003
         AIF   ('&MF' EQ 'I' OR '&MF' EQ '').OLDFORM STANDARD      @01C 44118003
.******************                                            @G76XRYU 44124003
.*  EXECUTE FORM  *                                            @G76XRYU 44130003
.******************                                            @G76XRYU 44136003
&NAME    CNOP  0,4                     TGET EXECUTE FORM       @G76XRYU 44142003
         AIF   ('&MF(2)'(1,1) EQ '(').MFREG  ..IF PARM IS RX.. @G76XRYU 44148003
         LA    1,&MF(2)                R1=> EXECUTE PARM LIST  @G76XRYU 44154003
         AGO   .GOTPARM                                        @G76XRYU 44160003
.MFREG   ANOP                                ..ELSE, IN A REG. @G76XRYU 44166003
         AIF   ('&MF(2)' EQ '(1)').GOTPARM  ..IF NOT REG 1..   @G76XRYU 44172003
         LR    1,&MF(2)                POINT R1 AT PARM LIST   @G76XRYU 44178003
.GOTPARM ANOP                    ...CHECK FLAG BIT SETTINGS    @G76XRYU 44184003
         MVI   0(1),0                  INSURE HI BIT OF R0 OFF @G76XRYU 44190003
         AIF   (&FLAGOFF EQ 145).SKIPAND .ANY FLAGS TURNED OFF @G76XRYU 44196003
         NI    4(1),&FLAGOFF           RESET TGET FLAGS1       @G76XRYU 44202003
.SKIPAND ANOP                    ...CHECK FOR FLAGS TO TURN ON @G76XRYU 44208003
         AIF   (&FLAGON EQ 0).PARMCK ..SKIP OR IF NO RESETS    @G76XRYU 44214003
         OI    4(1),&FLAGON            RESET TGET FLAGS 1      @G76XRYU 44220003
.PARMCK  ANOP                                                      @01C 44226003
         AIF   ('&SIZE' EQ '').CKBUFF  ...IF BUFF SIZE GIVEN.. @G76XRYU 44352003
         AIF   ('&SIZE'(1,1) EQ '(').SIZEREG ..IF INTEGER FORM @G76XRYU 44358003
         AIF   (T'&SIZE NE 'N').AROUND         .VALID & ^ NEG. @OZ42972 44364003
         AIF   (&SIZE GT 32767).SIZERR          ..NOT > 32767. @G76XRYU 44370003
.AROUND  ANOP                                                      @01C 44376003
         B     *+6                      BR AROUND SIZE             @01C 44402003
         DC    AL2(&SIZE)               SIZE CAN EXCEED 4095       @01C 44428003
         LH    0,*-2                   GET THE SIZE VALUE      @G76XRYU 44454003
         STH   0,2(1)                  INTO THE PARM LIST      @G76XRYU 44460003
         AGO   .CKBUFF                                         @G76XRYU 44466003
.SIZEREG ANOP                                  ..ELSE A REG..  @G76XRYU 44472003
         STH   &SIZE(1),2(1)           PUT BUFFER SIZE IN PARM @G76XRYU 44478003
.CKBUFF  ANOP                                                  @G76XRYU 44484003
         AIF   ('&BFF' EQ '').LOAD      ..IF A BUFF ADDR GIVEN @G76XRYU 44490003
         AIF   ('&BFF'(1,1) EQ '(').BUFFREG  ..IF AN RX ADDR.. @G76XRYU 44517003
         LA    0,&BFF                  GET ADDR OF INPUT BUFF  @G76XRYU 44544003
         STCM  0,B'0111',5(1)          PUT IN THE PARM LIST    @G76XRYU 44550003
         AGO   .LOAD                                           @G76XRYU 44556003
.BUFFREG ANOP                                ..ELSE A REG..    @G76XRYU 44562003
         STCM  &BFF(1),B'0111',5(1)    STORE BUFF ADDR IN PARM @G76XRYU 44568003
.LOAD    ANOP                          ..LOAD 0 & 1 FOR SVC..  @G76XRYU 44574003
         LM    0,1,0(1)                REG 0: BUFFER SIZE      @G76XRYU 44580003
*                                      REG 1: FLAGS,BUFF ADDR  @G76XRYU 44586003
         AGO   .SVC                                                @01C 44592003
.******************                                            @G76XRYU 44610003
.*   LIST FORM    *                                            @G76XRYU 44616003
.******************                                            @G76XRYU 44622003
.LFORM   ANOP                                                  @G76XRYU 44628003
&NAME    DS    0F                      TGET LIST FORM          @G76XRYU 44634003
         DC    H'0'                    MUST BE 0 FOR TGET      @G76XRYU 44640003
         AIF   ('&SIZE' NE '').LSTSIZE  ..IF NO BUFFER SIZE..  @G76XRYU 44646003
         DC    H'0'                    BUFFER SIZE HALFWORD    @G76XRYU 44652003
         AGO   .LBFADDR                                        @G76XRYU 44658003
.LSTSIZE ANOP                           ..ELSE A BUFFER SIZE.. @G76XRYU 44664003
         AIF   ('&SIZE'(1,1) EQ '(').REGERR  ..IF NOT A REG..  @G76XRYU 44670003
         AIF   (T'&SIZE NE 'N').ARNSIZL IF AN INTEGER              @01C 44676003
         AIF   (&SIZE GT 32767).SIZERR        .AND NOT >32767. @G76XRYU 44682003
.ARNSIZL DC    AL2(&SIZE)              INPUT BUFFER SIZE           @01C 44688003
.LBFADDR ANOP                          ...CHECK FOR BUFF ADDR. @G76XRYU 44694003
         DC    AL1(&OPT)               TGET FLAGS              @G76XRYU 44700003
         AIF   ('&BFF' NE '').LBFFLAB  ..IF NO BUFFER ADDR..   @G76XRYU 44706003
         DC    AL3(0)                  INPUT BUFFER ADDRESS    @G76XRYU 44712003
         MEXIT                                                 @G76XRYU 44718003
.LBFFLAB ANOP                          ..ELSE BUFFER ADDRESS.. @G76XRYU 44724003
         AIF   ('&BFF'(1,1) EQ '(').REGERR  ..IF NOT A REG..   @G76XRYU 44730003
&BFFPOS  SETA  2                                               @OZ56262 44730736
.LRXCK   ANOP                                                  @OZ56262 44731436
         AIF   (&BFFPOS GT K'&BFF).LBFFOK                      @OZ56262 44732136
         AIF   ('&BFF'(&BFFPOS,1) EQ '(').RXERR                @OZ56262 44732836
&BFFPOS  SETA  &BFFPOS+1                                       @OZ56262 44733536
         AGO  .LRXCK                                           @OZ56262 44734236
.LBFFOK  ANOP                                                  @OZ56262 44734936
         DC    AL3(&BFF)               INPUT BUFFER ADDRESS    @G76XRYU 44736003
         MEXIT                                                 @G76XRYU 44742003
.REGERR  ANOP                                                  @G76XRYU 44748003
         MNOTE 12,'IHB300 INCOMPATIBLE OPERANDS: MF=L, REGISTER OPERAND*44754003
                SPECIFIED'                                     @G76XRYU 44760003
         MEXIT                                                 @G76XRYU 44766003
.RXERR   ANOP                                                  @OZ56262 44767236
         MNOTE 12,'IHB300 INCOMPATIBLE OPERANDS: MF=L, RX FORM OPERAND X44768436
                SPECIFIED'                                     @OZ56262 44769636
         MEXIT                                                 @OZ56262 44770836
.OLDFORM AIF   ('&BFF'(1,1) EQ '(' OR '&SIZE'(1,1) EQ '(').REGST   @01C 44772003
.*                                                                 @01P 44803403
.*   REGULAR EXPANSION                                             @01P 44834803
.*                                                                 @01P 44866203
         CNOP  0,4                                             @OZ46729 44885036
&NAME    DS    0F                                              @OZ46729 44903836
         B     *+8                     BRANCH AROUND CONSTANTS @OZ48875 44922636
         DC    AL1(&OPT,0)             OPTION BYTE AND FILLER  @OZ48875 44941436
         DC    AL2(&SIZE)               BUFFER SIZE                @01P 44960403
         L     0,*-4                    LOAD SIZE              @OZ48875 44985536
         LA    1,&BFF                   LOAD BUFFER ADDRESS    @OZ48875 45010636
         ICM   1,8,*-12                 LOAD OPTION BYTE       @OZ48875 45035736
         ICM   0,8,*-15                 CLEAR HIGH ORDER BYTE  @OZ51683 45060836
.SVC     SVC   93                       ISSUE SVC                  @01P 45086003
         SPACE 1                                                   @01C 45117403
         MEXIT                                                     @01P 45148803
.*                                                                 @01P 45180203
.*   REGISTER NOTATION                                             @01P 45211603
.*                                                                 @01P 45243003
.REGST   ANOP                                                      @01P 45274403
         CNOP  0,4                                             @OZ46729 45290136
&NAME    B     *+8                      BRANCH AROUND CONSTANT     @01P 45305803
         AIF   ('&BFF'(1,1) EQ '(' AND '&SIZE'(1,1) EQ '(').BOTH   @01C 45337203
.*                                      PARAMETERS ARE IN REG FORM @01C 45368603
         AIF   ('&SIZE'(1,1) EQ '(').SZREG   SIZE IN REG           @01P 45400003
.*                                                                 @01P 45431403
.*   BUFFER ADDR IN REGISTER FORM                                  @01P 45462803
.*                                                                 @01P 45494203
         DC    AL1(&OPT)                OPTION BITS                @01P 45525603
         DC    AL3(0)                   BUFFER ADDR                @01P 45557003
         LA    1,0(,&BFF(1))            CLR HIGH ORDR BYTE + LD BFR@01P 45588403
         O     1,*-8                    SET OPTIONS                @01P 45619803
         LA    0,&SIZE                  LOAD SIZE OF BUFFER        @01P 45651203
         AGO   .SVC                     GOTO ISSUE SVC             @01P 45682603
.*                                                                 @01P 45714003
.*   BUFFER SIZE IN REGISTER FORM                                  @01P 45745403
.*                                                                 @01P 45776803
.SZREG   DC    AL1(&OPT)                OPTION BITS                @01P 45808203
         DC    AL3(0)                   FILLER                 @OZ48875 45831736
         LA    1,&BFF                   LOAD BUFFER ADDRESS    @OZ48875 45855236
         O     1,*-8                    SET OPTIONS            @OZ48875 45878736
         AIF   ('&SIZE' EQ '(0)').SVC   SIZE IN REG. 0             @01P 45902403
         LR    0,&SIZE(1)               LOAD BUFFER SIZE IN REG 0  @01P 45933803
         AGO   .SVC                     GOTO ISSUE SVC             @01P 45965203
.*                                                                 @01P 45996603
.*   WHEN BOTH ARE IN REGISTER NOTATION                            @01P 46028003
.*                                                                 @01P 46059403
.BOTH    DC    AL1(&OPT)                OPTION BITS                @01P 46090803
         DC    AL3(0)                   BUFFER ADDR                @01P 46122203
         LA    1,0(,&BFF(1))            CLR HIGH ORDR BYTE + LD BFR@01P 46153603
         O     1,*-8                    SET OPTIONS                @01P 46185003
         AIF   ('&SIZE' EQ '(0)').SVC   GOTO SVC IF (0) SPECIFIED  @01P 46216403
         LR    0,&SIZE(1)               LOAD BUFFER SIZE IN REG 0  @01P 46247803
         AGO   .SVC                     GOTO ISSUE SVC             @01P 46279203
.RF      ANOP                                                      @01P 46310603
         AIF   ('&WAIT' NE '').RERR                                @01P 46342003
         AIF   ('&BFF'(1,1) NE '(' OR '&SIZE'(1,1) NE '(').RERR    @01P 46373403
&NAME    DS    0H                                                  @01P 46404803
         AIF   ('&BFF' EQ '(1)').SIZE                              @01P 46436203
         LR    1,&BFF(1)                LOAD BUFFER ADDRESS IN REG @01P 46467603
.SIZE    AIF   ('&SIZE' EQ '(0)').SVC                              @01P 46499003
         LR    0,&SIZE(1)               LOAD BUFFER SIZE IN REG 0  @01P 46530403
         AGO   .SVC                                                @01P 46561803
.SIZERR  MNOTE 12,'IHB300 SIZE NOT IN RANGE 0-32767'               @01C 46593203
         MEXIT                                                 @G76XRYU 46624603
.RERR    IHBERMAC 192                                              @01P 46656003
         MEXIT                                                     @01P 46687403
.ERROR1  IHBERMAC 24                                               @01P 46718803
         MEXIT                                                     @01P 46750203
.ERROR2  IHBERMAC 54,,,                                            @01P 46781603
         MEXIT                                                     @01P 46813003
.ERROR3  IHBERMAC 49,,&ERROPT                                      @01P 46844403
         MEND                                                           46875803
         EJECT                                                          46907203
TGETTEST CSECT                                                          46938603
         USING TGETTEST,12,11,10,9                             @OZ49617 46970036
         DS    51X  33 IN HEX                                           47001403
BUFFER   DS    0X                                                       47032803
SIZE     EQU   119  77 IN HEX                                           47064203
R2       EQU   2                                                        47095603
R3       EQU   3                                                        47127003
         TGET BUFFER                                                    47158403
         TGET ,SIZE                                                     47189803
         TGET ,,EDIT                                                    47221203
         TGET ,,,WAIT                                                   47252603
         TGET ,,,,MF=I                                                  47284003
*        ALL SINGLE PARMS                                               47315403
         TGET BUFFER,SIZE                                               47346803
         TGET BUFFER,,EDIT                                              47378203
         TGET BUFFER,,,WAIT                                             47409603
         TGET BUFFER,,,,MF=I                                            47441003
*        ALL BUFFER + 1 PARM                                            47472403
         TGET BUFFER,SIZE,EDIT                                          47503803
         TGET BUFFER,SIZE,,WAIT                                         47535203
         TGET BUFFER,SIZE,,,MF=I                                        47566603
* ALL BUFFER + 2 PARMS                                                  47598003
         TGET BUFFER,SIZE,EDIT,WAIT                                     47629403
         TGET BUFFER,SIZE,EDIT,,MF=I                                    47660803
*        ALL BUFFER +3 PARMS                                            47692203
         TGET BUFFER,SIZE,EDIT,WAIT,MF=I                                47723603
*  ALL PARMS                                                            47755003
         TGET ,SIZE,EDIT                                                47786403
         TGET ,SIZE,,WAIT                                               47817803
         TGET ,SIZE,,,MF=I                                              47849203
* ALL SIZE + 1 PARM                                                     47880603
         TGET ,SIZE,EDIT,WAIT                                           47912003
         TGET ,SIZE,=EDIT,,MF=I                                         47943403
* ALL SIZE + 2 PARMS                                                    47974803
         TGET ,SIZE,EDIT,WAIT,MF=I                                      48006203
* ALL SIZE + ALL PARMS BUT BUFFER                                       48037603
         TGET ,,EDIT,WAIT                                               48069003
         TGET ,,EDIT,MF=I                                               48100403
         TGET ,,EDIT,WAIT,MF=I                                          48131803
* ALL REST OF EDIT COMBINATIONS                                         48163203
         TGET ,,,WAIT,MF=I                                              48194603
* ALL POSSIBLE COMBINATIONS OF OPERANDS?                                48226003
         TGET (R2)                                                      48257403
         TGET ,SIZE                                                     48288803
         TGET ,,EDIT                                                    48320203
         TGET ,,,WAIT                                                   48351603
         TGET ,,,,MF=I                                                  48383003
*        ALL SINGLE PARMS                                               48414403
         TGET (R2),SIZE                                                 48445803
         TGET (R2),,EDIT                                                48477203
         TGET (R2),,,WAIT                                               48508603
         TGET (R2),,,,MF=I                                              48540003
*        ALL (R2) + 1 PARM                                              48571403
         TGET (R2),SIZE,EDIT                                            48602803
         TGET (R2),SIZE,,WAIT                                           48634203
         TGET (R2),SIZE,,,MF=I                                          48665603
* ALL (R2) + 2 PARMS                                                    48697003
         TGET (R2),SIZE,EDIT,WAIT                                       48728403
         TGET (R2),SIZE,EDIT,,MF=I                                      48759803
*        ALL (R2) +3 PARMS                                              48791203
         TGET (R2),SIZE,EDIT,WAIT,MF=I                                  48822603
*  ALL PARMS                                                            48854003
         TGET ,SIZE,EDIT                                                48885403
         TGET ,SIZE,,WAIT                                               48916803
         TGET ,SIZE,,,MF=I                                              48948203
* ALL SIZE + 1 PARM                                                     48979603
         TGET ,SIZE,EDIT,WAIT                                           49011003
         TGET ,SIZE,=EDIT,,MF=I                                         49042403
* ALL SIZE + 2 PARMS                                                    49073803
         TGET ,SIZE,EDIT,WAIT,MF=I                                      49105203
* ALL SIZE + ALL PARMS BUT (R2)                                         49136603
         TGET ,,EDIT,WAIT                                               49168003
         TGET ,,EDIT,MF=I                                               49199403
         TGET ,,EDIT,WAIT,MF=I                                          49230803
* ALL REST OF EDIT COMBINATIONS                                         49262203
         TGET ,,,WAIT,MF=I                                              49293603
* ALL POSSIBLE COMBINATIONS OF OPERANDS?                                49325003
         TGET (2)                                                       49356403
         TGET ,SIZE                                                     49387803
         TGET ,,EDIT                                                    49419203
         TGET ,,,WAIT                                                   49450603
         TGET ,,,,MF=I                                                  49482003
*        ALL SINGLE PARMS                                               49513403
         TGET (2),SIZE                                                  49544803
         TGET (2),,EDIT                                                 49576203
         TGET (2),,,WAIT                                                49607603
         TGET (2),,,,MF=I                                               49639003
*        ALL (2) + 1 PARM                                               49670403
         TGET (2),SIZE,EDIT                                             49701803
         TGET (2),SIZE,,WAIT                                            49733203
         TGET (2),SIZE,,,MF=I                                           49764603
* ALL (2) + 2 PARMS                                                     49796003
         TGET (2),SIZE,EDIT,WAIT                                        49827403
         TGET (2),SIZE,EDIT,,MF=I                                       49858803
*        ALL (2) +3 PARMS                                               49890203
         TGET (2),SIZE,EDIT,WAIT,MF=I                                   49921603
*  ALL PARMS                                                            49953003
         TGET ,SIZE,EDIT                                                49984403
         TGET ,SIZE,,WAIT                                               50015803
         TGET ,SIZE,,,MF=I                                              50047203
* ALL SIZE + 1 PARM                                                     50078603
         TGET ,SIZE,EDIT,WAIT                                           50110003
         TGET ,SIZE,=EDIT,,MF=I                                         50141403
* ALL SIZE + 2 PARMS                                                    50172803
         TGET ,SIZE,EDIT,WAIT,MF=I                                      50204203
* ALL SIZE + ALL PARMS BUT (2)                                          50235603
         TGET ,,EDIT,WAIT                                               50267003
         TGET ,,EDIT,MF=I                                               50298403
         TGET ,,EDIT,WAIT,MF=I                                          50329803
* ALL REST OF EDIT COMBINATIONS                                         50361203
         TGET ,,,WAIT,MF=I                                              50392603
* ALL POSSIBLE COMBINATIONS OF OPERANDS?                                50424003
         TGET 12(2)                                                     50455403
         TGET ,SIZE                                                     50486803
         TGET ,,EDIT                                                    50518203
         TGET ,,,WAIT                                                   50549603
         TGET ,,,,MF=I                                                  50581003
*        ALL SINGLE PARMS                                               50612403
         TGET 12(2),SIZE                                                50643803
         TGET 12(2),,EDIT                                               50675203
         TGET 12(2),,,WAIT                                              50706603
         TGET 12(2),,,,MF=I                                             50738003
*        ALL 12(2) + 1 PARM                                             50769403
         TGET 12(2),SIZE,EDIT                                           50800803
         TGET 12(2),SIZE,,WAIT                                          50832203
         TGET 12(2),SIZE,,,MF=I                                         50863603
* ALL 12(2) + 2 PARMS                                                   50895003
         TGET 12(2),SIZE,EDIT,WAIT                                      50926403