         MACRO                                                          00400019
&NAME    TGROUP &TC1=,&TC2=,&TC3=,&TC4=,&TC5=,&TC6=,&TC7=,&TC8=,&TC9=   00800019
         GBLA  &IECNDGP(100),&IECCNTR                                   01200019
.*             IECNDGP(1)  NUMBER OF BYTES COUNTER                      01600019
.*             IECNDGP(6)  COUNTER FOR NUMBER OF TGROUP MACROS          02000019
         GBLB  &IECSW(9),&IECSEQ(10)                              21094 02400021
.*             IECSW(1)   INDICATES CORE SIZE                           02800019
.*             IECSW(3)   INDICATES NOT FIRST MACRO                     03200019
.*             IECSEQ(3) SEQUENCE INDICATOR                             03600019
         GBLC  &IECDGRP(100)                                            04000019
         LCLA  &A,&B,&SAVE(4),&CNST,&C,&D                               04400019
         LCLB  &NCODE,&SW(4),&SV                                        04800019
         LCLC  &CHAR,&TYPE(2)                                           05200019
         ACTR  500                                                      05600019
         AIF   (&IECSW(3)).BY                                           06000019
&IECSEQ(3) SETB 1                                                       06400019
.BY      AIF   (&IECSEQ(1) AND &IECSEQ(2) AND &IECSEQ(3) AND NOT&IECSEQ-06800019
               (4) AND NOT&IECSEQ(5) AND NOT&IECSEQ(6)).SEQOK           07200019
&NCODE   SETB  1                                                        07600019
         MNOTE 12,'MACRO SEQUENCE ERROR'                                08000019
.SEQOK   AIF   ('&NAME' NE '').NMOK                                     08400019
&NCODE   SETB  1                                                        08800019
         MNOTE 12,'NAME FIELD REQUIRED'                                 09200019
.NMOK    AIF   (T'&TC1 NE 'O' OR T'&TC2 NE 'O' OR T'&TC3 NE 'O' OR     X09600019
               T'&TC4 NE 'O' OR T'&TC5 NE 'O' OR T'&TC6 NE 'O').TCNOK   10000019
         AIF   (T'&TC7 NE 'O' OR T'&TC8 NE 'O' OR T'&TC9 NE 'O').TCNOK  10400019
&NCODE   SETB  1                                                        10800019
         MNOTE 12,'AT LEAST ONE OPERAND REQUIRED'                       11200019
.TCNOK   AIF   (&IECSW(3)).THRU                                         11600019
&IECCNTR SETA  &IECCNTR+1                                               12000019
&IECSW(3) SETB 1                                                        12400019
         SPACE 1                                                        12800019
*                  AREA STATION SEQUENCE TABLE                          13200019
         SPACE 1                                                        13600019
IECASSEQ DC    &IECCNTR.X'00'      AS-SEQ TABLE                         14000019
&C       SETA  &C+1                                                     14400019
&A       SETA  0                                                        14800019
         SPACE 1                                                        15200019
*                  DATA ENTRY UNIT INDEX TABLE                          15600019
         SPACE 1                                                        16000019
IECDENDX EQU   *                                                        16400019
         DC    YL1(0)                                                   16800019
.LOOPB   ANOP                                                           17200019
&A       SETA  &A+1                                                     17600019
&B       SETA  &IECNDGP(&A)+&B                                          18000019
         AIF   (&B GT 1023).OUT                                         18400019
         AIF   (&B GT 767 AND NOT &SW(3)).SETC                          18800019
         AIF   (&B GT 511 AND NOT &SW(2)).SETC                          19200019
         AIF   (&B GT 255 AND NOT &SW(1)).SETC                          19600019
         AIF   (&B EQ 0 AND &IECCNTR EQ 1).NDGPOK                       19700021
         AIF   (&B EQ 1 AND &IECCNTR EQ 1).NDGPOK                       19800021
         AIF   (&IECCNTR EQ 1).NDGPOK                             M2750 20000019
         DC    YL1(&B-&CNST)                                            20400019
         AIF   (&A NE &IECCNTR-1).LOOPB                                 20800019
         AGO   .OUT                                                     21200019
.SETC    ANOP                                                           21600019
&SW(&C)  SETB  1                                                        22000019
&SAVE(&C) SETA &A                                                       22400019
&CNST    SETA  &CNST+256                                                22800019
&C       SETA  &C+1                                                     23200019
         DC    YL1(&B-&CNST)                                            23600019
         AIF   (&A NE &IECCNTR-1).LOOPB                           M2764 24000019
.OUT     ANOP                                                           24400019
&A       SETA  &A+1                                                     24800019
&B       SETA  &IECNDGP(&A)+&B                                          25200019
         AIF   (&B LE 1024).NDGPOK                                      25600019
         MNOTE 12,'NUMBER OF DEUS EXCEEDS 1024, DEU-SEQ AND DEU TABLES -26000019
               SUPRESSED'                                               26400019
&IECNDGP(6) SETA 0                                                21094 26600021
         AGO   .TBSUP                                                   26800019
.NDGPOK  ANOP                                                           27200019
         SPACE 1                                                        27600019
*                  DATA ENTRY UNIT SEQUENCE TABLE                       28000019
         SPACE 1                                                        28400019
IECDESEQ DC    &B.X'00'                                                 28800019
&IECNDGP(1) SETA &B+4*&IECCNTR+22  TOTAL NUMBER OF BYTES                29200021
&IECNDGP(6) SETA 0                                                      29600019
         SPACE 1                                                        30000019
*                  DATA ENTRY UNIT TABLE                                30400019
         SPACE 1                                                        30800019
IECDEUTB EQU   *                                                        31200019
&A       SETA  0                                                        31600019
&CNST    SETA  0                                                        32000019
&B       SETA  0                                                        32400019
&C       SETA  1                                                        32800019
.LOOPZ   ANOP                                                           33200019
&D       SETA  18                                                       33600019
&A       SETA  &A+1                                                     34000019
.AGN     AIF   (&A GT &SAVE(&C) AND &SAVE(&C) NE 0).G255                34400019
         AIF   ('&IECDGRP(&A)' NE '').DCC                               34800019
&IECDGRP(&A) SETC 'IECFTGRP'                                            35200019
&D       SETA  0                                                        35600019
.DCC     DC    YL1((((&IECDGRP(&A)-IECFTGRP)+&D)/18)*4+&CNST)           36000019
         AIF   (&A NE &IECCNTR).LOOPZ                                   36400019
.TBSUP   ANOP                                                           36800019
         DS    0H'0'                                                    37200019
         SPACE 1                                                        37600019
*                  TRANSACTION GROUP TABLE                              38000019
         SPACE 1                                                        38400019
IECFTGRP EQU *                                                          38800019
         AGO   .THRU                                                    39200019
.G255    ANOP                                                           39600019
&CNST    SETA  &CNST+1                                                  40000019
&C       SETA  &C+1                                                     40400019
         AGO   .AGN                                                     40800019
.THRU    ANOP                                                           41200019
&IECNDGP(6) SETA &IECNDGP(6)+1                                          41600019
         AIF   (&IECNDGP(6) LE 63).NUMOK                                42000019
         MNOTE 3,'NUMBER OF TGROUP MACROS EXCEEDS 63,MACRO IGNORED'     42400019
         MEXIT                                                          42800019
.NUMOK   AIF   (&NCODE).NOGEN                                           43200019
&NAME    EQU   *                                                        43600019
&A       SETA  0                                                        44000019
&B       SETA  1                                                        44400019
&SW(1)   SETB  0                                                        44800019
.LPCNTRL AIF   (&B NE 1).SETTC2                                         45200019
&TYPE(1) SETC  T'&TC1(1)                                                45600019
&TYPE(2) SETC  '&TC1(2)'                                                46000019
&CHAR    SETC  '&TC1(1)'                                                46400019
&SW(1)   SETB  (T'&TC1 EQ 'O')                                          46800019
&C       SETA  N'&TC1                                                   47200019
         AGO   .CKTCOP                                                  47600019
.SETTC2  AIF   (&B NE 2).SETTC3                                         48000019
&TYPE(1) SETC  T'&TC2(1)                                                48400019
&TYPE(2) SETC  '&TC2(2)'                                                48800019
&CHAR    SETC  '&TC2(1)'                                                49200019
&SW(1)   SETB  (T'&TC2 EQ 'O')                                          49600019
&C       SETA  N'&TC2                                                   50000019
         AGO   .CKTCOP                                                  50400019
.SETTC3  AIF   (&B NE 3).SETTC4                                         50800019
&TYPE(1) SETC  T'&TC3(1)                                                51200019
&TYPE(2) SETC  '&TC3(2)'                                                51600019
&CHAR    SETC  '&TC3(1)'                                                52000019
&SW(1)   SETB  (T'&TC3 EQ 'O')                                          52400019
&C       SETA  N'&TC3                                                   52800019
         AGO   .CKTCOP                                                  53200019
.SETTC4  AIF   (&B NE 4).SETTC5                                         53600019
&TYPE(1) SETC  T'&TC4(1)                                                54000019
&TYPE(2) SETC  '&TC4(2)'                                                54400019
&CHAR    SETC  '&TC4(1)'                                                54800019
&SW(1)   SETB  (T'&TC4 EQ 'O')                                          55200019
&C       SETA  N'&TC4                                                   55600019
         AGO   .CKTCOP                                                  56000019
.SETTC5  AIF   (&B NE 5).SETTC6                                         56400019
&TYPE(1) SETC  T'&TC5(1)                                                56800019
&TYPE(2) SETC  '&TC5(2)'                                                57200019
&CHAR    SETC  '&TC5(1)'                                                57600019
&SW(1)   SETB  (T'&TC5 EQ 'O')                                          58000019
&C       SETA  N'&TC5                                                   58400019
         AGO   .CKTCOP                                                  58800019
.SETTC6  AIF   (&B NE 6).SETTC7                                         59200019
&TYPE(1) SETC  T'&TC6(1)                                                59600019
&TYPE(2) SETC  '&TC6(2)'                                                60000019
&CHAR    SETC  '&TC6(1)'                                                60400019
&SW(1)   SETB  (T'&TC6 EQ 'O')                                          60800019
&C       SETA  N'&TC6                                                   61200019
         AGO   .CKTCOP                                                  61600019
.SETTC7  AIF   (&B NE 7).SETTC8                                         62000019
&TYPE(1) SETC  T'&TC7(1)                                                62400019
&TYPE(2) SETC  '&TC7(2)'                                                62800019
&CHAR    SETC  '&TC7(1)'                                                63200019
&SW(1)   SETB  (T'&TC7 EQ 'O')                                          63600019
&C       SETA  N'&TC7                                                   64000019
         AGO   .CKTCOP                                                  64400019
.SETTC8  AIF   (&B NE 8).SETTC9                                         64800019
&TYPE(1) SETC  T'&TC8(1)                                                65200019
&TYPE(2) SETC  '&TC8(2)'                                                65600019
&CHAR    SETC  '&TC8(1)'                                                66000019
&SW(1)   SETB  (T'&TC8 EQ 'O')                                          66400019
&C       SETA  N'&TC8                                                   66800019
         AGO   .CKTCOP                                                  67200019
.SETTC9  AIF   (&B NE 9).MEND                                           67600019
&TYPE(1) SETC  T'&TC9(1)                                                68000019
&TYPE(2) SETC  '&TC9(2)'                                                68400019
&CHAR    SETC  '&TC9(1)'                                                68800019
&SW(1)   SETB  (T'&TC9 EQ 'O')                                          69200019
&C       SETA  N'&TC9                                                   69600019
.CKTCOP  AIF   (NOT &SW(1)).CKMORE                                      70000019
&SV      SETB  1                                                        70400019
         AGO   .TCOK2                                                   70800019
.CKMORE  AIF   (&C LE 2).NTCOK                                          71200019
         MNOTE 3,'NUMBER OF SUBOPERANDS GREATER THAN 2,OPERAND IGNORED' 71600019
&SV      SETB  1                                                        72000019
.NTCOK   AIF   ('&TYPE(2)' EQ 'E' OR '&TYPE(2)' EQ '').TCOK1            72400019
         MNOTE 3,'TC&B.(2) INCORRECT,OPERAND IGNORED'                   72800019
&SV      SETB  1                                                        73200019
.TCOK1   AIF   ('&TYPE(1)' EQ 'R' OR '&TYPE(1)' EQ 'M').TCOK2           73600019
         MNOTE 3,'TC&B.(1) TYPE ATTRIBUTE=&TYPE(1) IMPROPER,OPERAND    X74000019
               IGNORED'                                                 74400019
&SV      SETB  1                                                        74800019
.TCOK2   AIF   (NOT &SV).SKIP1                                          75200019
         DC    YL2(0)                                                   75600019
         AGO   .ADD1                                                    76000019
.SKIP1   AIF   ('&TYPE(2)' NE 'E').ADDNT                                76400019
&A       SETA  X'8000'                                                  76800019
.ADDNT   ANOP                                                           77200019
         DC    AL2(&A+(&CHAR-IEC15TAB))                                 77600019
.ADD1    ANOP                                                           78000019
&A       SETA  0                                                        78400019
&B       SETA  &B+1                                                     78800019
&SW(1)   SETB  0                                                        79200019
&SV      SETB  0                                                        79600019
&IECNDGP(1) SETA &IECNDGP(1)+2                                          80000019
         AGO   .LPCNTRL                                                 80400019
.NOGEN   MNOTE 12,'TEXT GENERATION SUPRESSED'                           80800019
.MEND    MEND                                                           81200019
