         MACRO                                                          01000020
&NAME    TLIST &TYPE=,&LIST=,&XX=(A,B,C,D,E,F)                          02000020
         GBLA  &IEDQAR(64)                                              03000020
         GBLB  &IEDQZA(64)                                              04000020
         GBLC  &IEDQSV(8)                                               05000020
         LCLA  &A,&S,&X,&Y                                              06000020
         LCLB  &NO                                                      07000020
         LCLC  &V                                                       08000020
.*  CHANGE ACTIVITY AS FOLLOWS                                          08100005
.******************* MICROFICHE FLAGS *********************** SUPT CODE 08200005
.*C730000                                                        S21101 08500010
.*C790000                                                       SA59174 08500110
.*A690000                                                       OX01426 08500210
.*C790000                                                       SA59174 08500310
.*A705000,770000                                                 X02004 08500410
.*A780000                                                        Y05330 08500510
*A703000                                                         X01004 08500610
*D705000                                                         X01004 08500710
         AIF   ('&NAME' NE '').C0                                       09000020
         MNOTE 12,'*** IHB076 MACRO NAME FIELD BLANK- NAME REQUIRED'    10000020
&NO      SETB  1                                                        11000020
.C0      AIF   ('&LIST' NE '').C1                                       12000020
.ERR1    MNOTE 12,'*** IHB004 REQUIRED OPERAND(S) NOT SPECIFIED'        13000020
         SPACE 2                                                        14000020
         MEXIT                                                          15000020
.C1      AIF   (&A EQ N'&LIST-1).EN                                     16000020
&A       SETA  &A+1                                                     17000020
         AIF   ('&LIST(&A)' NE '').C1                                   18000020
         MNOTE 12,'*** IHB001 LIST OPERAND &A REQ''D- NOT SPECIFIED'    19000020
&NO      SETB  1                                                        20000020
         AGO   .C1                                                      21000020
.EN      AIF   (&IEDQAR(10) EQ 0).OK                                    22000020
         AIF   (&IEDQAR(10) EQ 1 AND '&NAME' EQ '&IEDQSV(1)').CON       23000020
         IEDQGCH 1                                                      24000020
.OK      AIF   ('&TYPE' EQ '').ERR1                                     24600020
         AIF   (&IEDQZA(55)).O2                                         25200020
         AIF   (&IEDQZA(54) EQ &IEDQZA(55) AND &IEDQZA(53) EQ &IEDQZA(5*26000020
               4)).NOTAB                                                27000020
         MNOTE 12,'*** IHB315 SEQUENCE ERROR- MUST PRECEDE LAST ENTRY  *28000020
                SPECIFIED BY TTABLE MACRO'                              29000020
         AGO   .SETNO                                                   30000020
.NOTAB   MNOTE 12,'*** IHB070 SEQUENCE ERROR- MUST FOLLOW TTABLE MACRO' 31000020
.SETNO   ANOP                                                           32000020
&NO      SETB  1                                                        33000020
.O2      SPACE 2                                                        34000020
         AIF   ('&TYPE' EQ 'C' OR '&TYPE' EQ 'D').GO                    35000020
.ERR2    MNOTE 12,'*** IHB002 INVALID TYPE OPERAND SPECIFIED- &TYPE'    36000020
         SPACE 2                                                        37000020
&NO      SETB  1                                                        38000020
.GO      AIF   (&NO).EXT                                                39000020
&IEDQAR(5) SETA  0                                                      41000020
&IEDQZA(54)  SETB  1                                                    42000020
&NAME    IEDQTT                                                         43000020
         DC    BL1'01001000'                                            44000020
         AIF   ('&TYPE' EQ 'C').CAS                                     45000020
         DC    VL3(IEDQBC)                                              46000020
.DLS     ANOP                                                           47000020
&S       SETA  1                                                        48000020
.CKN     ANOP                                                           48300020
&A       SETA  N'&LIST                                                  48600020
&IEDQAR(10) SETA 0                                                      49000020
&V       SETC  'IED'.'&IEDQAR(4)'.'&XX(&IEDQAR(7))'                     50000020
&Y       SETA  &A+&X                                                    52000020
         AIF   (&X EQ 0).NORG1                                          53000020
         ORG   &V+4                                                     54000020
.NORG1   AIF   ('&LIST(N'&LIST)' NE '').END                             55000020
&IEDQAR(10) SETA 1                                                      56000020
&Y       SETA  &Y-1                                                     58000020
&A       SETA  &A-1                                                     59000020
&IEDQAR(5)  SETA  &IEDQAR(5)+&A                                         59500020
.END     DC    AL2(&Y) .                COUNT OF TLIST ENTRIES          60000020
         AIF   (&X EQ 0).NORG2                                          61000020
         ORG                                                            62000020
.NORG2   ANOP                                                           63000020
&Y       SETA  82-&IEDQAR(1)                                            64000020
.CONT    DC    AL2((&LIST(&S)-IEDQTNT-&Y)/&IEDQAR(1))                   65000020
&S       SETA  &S+1                                                     66000020
         AIF   (&S LE &A).CONT                                          67000020
         SPACE 2                                                        68000020
         AIF   ('&NAME' NE '&IEDQSV(5)').EXT                            69000020
         AIF   ('&LIST(N'&LIST)' EQ '').MEXT                    OX01426 69005005
         IEDNOL ,                                                S99528 69010022
&IEDQZA(55) SETB   0                                                    70000020
         AIF   (&IEDQAR(14) NE 0).GOTSCB                         Y05330 70100010
&IEDQAR(14) SETA 1                                               Y05330 70200010
.GOTSCB  ANOP                                                    Y05330 70300010
IEDQSCBC CSECT                                                   X01004 70350010
IEDQTRME DC    AL2(&IEDQAR(11)),AL2((&IEDQAR(14)+7)/8)           X02004 70400010
IEDQTNT  CSECT                                                   X02004 71000010
         DC    A(IEDQTRMC)                                       X02004 72000010
         AIF   (&IEDQAR(10) NE 0).CKDSK                          X02004 75000010
IEDQOPC  CSECT                                                          75300010
         DC    X'FF'                    END OF TABLE             Y05330 75600010
IEDQOPT  CSECT                                                          76000020
IEDQOPTN DC    AL2(&IEDQAR(15))                                         77000020
.CKDSK   ANOP                                                    X02004 77500010
&IEDQSV(4) CSECT                                                        78000020
&A       SETA  0                                                 Y05330 78100010
&S       SETA  0                                                 Y05330 78200010
IEDOCQE  EQU   &IEDQZA(53)*255                                   Y05330 78300010
         AIF   (&IEDQAR(33) EQ 0 AND &IEDQAR(34) EQ 0).CXXG      Y05330 78400010
&A       SETA  (&IEDQAR(34)*4+1)                                 Y05330 78500010
&S       SETA  (&IEDQAR(33)*4+3)                                 Y05330 78600010
.CXXG    ANOP                                                    Y05330 78700010
IEDQNADN EQU   &A                                                Y05330 78800010
IEDQNADR EQU   &S                                                Y05330 78900010
.EXT     ANOP                                                   SA59174 79000010
         AIF   ('&LIST(N'&LIST)' EQ '').MEXT                    SA59174 79100010
&IEDQAR(5) SETA 0                                               SA59174 79300022
.MEXT    MEXIT                                                  SA59174 79600022
.CAS     DC    VL3(IEDQBG)                                              80000020
         AGO   .DLS                                                     81000020
.CON     ANOP                                                           82000020
&S       SETA  1                                                        83000020
&X       SETA  &IEDQAR(5)                                               84000020
         AGO   .CKN                                                     85000020
         MEND                                                           86000020
