         MACRO                                                          00700020
&NAME   TRANLIST &LIST=,&CHARS=,&MODEL=(1030,1050,105F,1060,2260,2265,2*01400020
               740,274F,ITA2,ZSC3,TTYA,TTYB,TTYC,6BIT,ASCI,EBCD,BC41,EB*02100020
               41,CR41),&OPFLD=,&L2741=,&L1050=                         02800020
         GBLA  &IEDQZE(64)                                              03500020
         GBLB  &IEDQZA(64)                                              03800020
         LCLA  &N,&X,&CT,&A                                             04200020
         LCLB  &NOGO                                                    04900020
         LCLC  &BUCKET                                                  05600020
.*A161000                                                      @SA70210 05900010
         AIF   ('&NAME' NE '').OK                                       06300020
         MNOTE 12,'XXX IHB     -NAME OPERAND REQUIRED.'                 07000020
&NOGO    SETB  1                                                        07700020
.OK      AIF   ('&LIST' NE '' OR '&L2741' NE '' OR '&L1050' NE '').OK1A 08400020
         MNOTE 12,'XXX IHB    TRANSLATE TABLES REQUIRED.'               09100020
&NOGO    SETB  1                                                        09800020
.OK1A    AIF   ('&LIST' NE '' AND '&L1050' NE '').ER1                   10500020
         AIF   ('&LIST' NE '' AND '&L2741' NE '').ER1                   11200020
         AGO   .OK1                                                     11900020
.ER1     MNOTE 12,'XXX IHB    - LIST AND L2741 OR L1050 ARE MUTUALLY EXC12600020
               CLUSIVE'                                                 13300020
&NOGO    SETB  1                                                        14000020
.OK1     AIF   ('&CHARS' NE '').OK2                                     14700020
         MNOTE 'XXX IHB    - CHARACTER STRINGS MUST BE SPECIFIED.'      15400020
&NOGO    SETB  1                                                        16100020
         AGO   .OPCHK                                          @SA70210 16400010
.OK2     ANOP                                                           16800020
         AIF   (N'&CHARS LE 5).OK3                                      17500020
         MNOTE 12,'XXX IHB    -NUMBER OF STRINGS MUST BE 5 OR LESS.'    18200020
&NOGO    SETB  1                                                        18900020
.OK3     ANOP                                                           19600020
&N       SETA  N'&CHARS                                                 20300020
.LPP     AIF   (K'&CHARS(&N) LT 9).OK4                                  21000020
         MNOTE 12,'XXX IHB    -MAXIMUM CHARACTER STRING IS 8.'          21700020
&NOGO    SETB  1                                                        22400020
.OK4     ANOP                                                           23100020
&N       SETA  &N-1                                                     23800020
         AIF   (&N NE 0).LPP                                            24500020
&N       SETA  N'&CHARS                                                 25200020
.NEXT    AIF   (K'&CHARS(&N) LT 9 AND '&CHARS(&N)'(1,1) LT '0').OK5     25900020
         MNOTE 12,'XXX IHB    -ILLEGAL CHARACTER STRING.'               26600020
&NOGO    SETB  1                                                        27300020
.OK5     ANOP                                                           28000020
&N       SETA  &N-1                                                     28700020
         AIF   (&N NE 0).NEXT                                           29400020
.OPCHK   AIF   ('&OPFLD' NE '').OK6                                     30100020
.EOP     MNOTE 12,'XXX IHB    - OPTION FIELD MUST BE SPECIFIED.'        30800020
&NOGO    SETB  1                                                        31500020
.OK6     AIF   (K'&OPFLD LE 8).CONTX                                    32200020
.EOO     MNOTE 12,'XXX IHB    - OPFLD INVALID AS SPECIFIED.'            32900020
&NOGO    SETB  1                                                        33600020
         AIF   ('&OPFLD(1)' GE 'A' AND '&OPFLD(1)' LE 'Z').CONTX        34300020
         MNOTE 12,'XXX IHB    - OPTION FIELD INVALID AS SPECIFIED.'     35000020
.CONTX   AIF   (NOT &NOGO).CONT                                         35700020
         MEXIT                                                          36400020
.CONT    ANOP                                                           36500020
         AIF   (&IEDQZA(62)).GENA3                                      36600020
&IEDQZA(62) SETB 1                                                      36700020
         ORG   IEDA3TL                                                  36800020
         DC    V(IEDQA3)                                                36900020
         ORG                                                            37000020
.GENA3   ANOP                                                           37100020
         DS    0F                                                       37200020
&NAME    DC    XL1'80',AL1(&OPFLD)                                      37800020
&N       SETA  N'&CHARS                                                 38500020
&X       SETA  N'&LIST+N'&L2741+N'&L1050                                39200020
         DC    AL1(&N) .                NUMBER OF STRINGS               39900020
         DC    AL1(&X) .                NUMBER OF TRANSLATE TABLES      40600020
         AIF   ('&LIST' EQ '').C2741                                    41300020
&X       SETA  1                                                        42000020
&N       SETA  1                                                        42700020
.LSTLP   ANOP                                                           43400020
&A       SETA  0                                                        44100020
&CT      SETA  K'&LIST(&X)                                              44800020
&BUCKET  SETC  '&LIST(&X)'(1,&CT)                                       45500020
         AIF   (&CT NE 4).LSTUSR                                        46200020
.LSTLP1  ANOP                                                           46900020
&A       SETA  &A+1                                                     47600020
         AIF   (&A GT N'&MODEL).LSTUSR                                  48300020
         AIF   ('&LIST(&X)'(1,4) NE '&MODEL(&A)'(1,4)).LSTLP1           49000020
&A       SETA  &A+9                                                     49700020
.LSTCON  DC    XL1'00',VL3(IEDQ&A)                                      50400020
.LSTLPQ  ANOP                                                           51100020
&X       SETA  &X+1                                                     51800020
         AIF   (&X LE N'&LIST).LSTLP                                    52500020
         AGO   .C2741                                                   53200020
.LSTUSR  DC    XL1'00',VL3(&BUCKET)                                     53900020
         AGO   .LSTLPQ                                                  54600020
.C2741   AIF   ('&L2741' EQ '').C1050                                   55300020
&X       SETA  1                                                        56000020
&N       SETA  1                                                        56700020
.L41LP   ANOP                                                           57400020
&A       SETA  0                                                        58100020
&CT      SETA  K'&L2741(&X)                                             58800020
&BUCKET  SETC  '&L2741(&X)'(1,&CT)                                      59500020
         AIF   (&CT NE 4).L41USR                                        60200020
.L41LP1  ANOP                                                           60900020
&A       SETA  &A+1                                                     61600020
         AIF   (&A GT N'&MODEL).L41USR                                  62300020
         AIF   ('&L2741(&X)'(1,4) NE '&MODEL(&A)'(1,4)).L41LP1          63000020
&A       SETA  &A+9                                                     63700020
.L41CON  DC    XL1'01',VL3(IEDQ&A)                                      64400020
.L41LPQ  ANOP                                                           65100020
&X       SETA  &X+1                                                     65800020
         AIF   (&X LE N'&L2741).L41LP                                   66500020
         AGO   .C1050                                                   67200020
.L41USR  DC    XL1'01',VL3(&BUCKET)                                     67900020
         AGO   .L41LPQ                                                  68600020
.C1050   AIF   ('&L1050' EQ '').NXT                                     69300020
&X       SETA  1                                                        70000020
&N       SETA  1                                                        70700020
.L50LP   ANOP                                                           71400020
&A       SETA  0                                                        72100020
&CT      SETA  K'&L1050(&X)                                             72800020
&BUCKET  SETC  '&L1050(&X)'(1,&CT)                                      73500020
         AIF   (&CT NE 4).L50USR                                        74200020
.L50LP1  ANOP                                                           74900020
&A       SETA  &A+1                                                     75600020
         AIF   (&A GT N'&MODEL).L50USR                                  76300020
         AIF   ('&L1050(&X)'(1,4) NE '&MODEL(&A)'(1,4)).L50LP1          77000020
&A       SETA  &A+9                                                     77700020
.L50CON  DC    XL1'02',VL3(IEDQ&A)                                      78400020
.L50LPQ  ANOP                                                           79100020
&X       SETA  &X+1                                                     79800020
         AIF   (&X LE N'&L1050).L50LP                                   80500020
         AGO   .NXT                                                     81200020
.L50USR  DC    XL1'02',VL3(&BUCKET)                                     81900020
         AGO   .L50LPQ                                                  82600020
.NXT     ANOP                                                           83300020
&CT      SETA  K'&CHARS(&N)                                             84000020
&BUCKET  SETC  '&CHARS(&N)'(1,&CT)                                      84700020
&X       SETA  &CT                                                      85400020
.LOOPR AIF ('&CHARS(&N)'(&CT,1) EQ '''').REDU                           86100020
&X       SETA  &X-1                                                     86800020
         AIF   (&X NE 0).LOOPR                                          87500020
         AGO   .OKQU                                                    88200020
.REDU    ANOP                                                           88900020
&CT      SETA  &CT-1                                                    89600020
.OKQU    ANOP                                                           90300020
         DC    AL1(&CT)                                                 91000020
         DC    C'&BUCKET'                                               91700020
&N       SETA  &N+1                                                     92400020
         AIF   (&N LE N'&CHARS).NXT                                     93100020
         MEND                                                           93800020
