         MACRO                                                          00050000
&NAME    TRANSLAT &TRANSCH=,&TRANTXT=                                   00100000
         GBLA  &IECNDGP(100)                                            00150000
.*             IECNDGP(11)  NUMBER OF TRANSLAT MACROS                   00200000
         GBLB  &IECGDSW,&IECSEQ(10),&IECSQ(7)                           00250000
.*             IECGDSW   INDICATES GDU=YES CODED                        00300000
.*             IECSQ(6)  SEQUENCE INDICATOR                             00350000
         LCLA  &A,&B,&C                                                 00400000
         LCLB  &NOCODE                                                  00450000
         ACTR  1000                                                     00500000
         AIF   (&IECSEQ(1) AND &IECSEQ(2) AND &IECSQ(1) AND &IECSQ(2)  X00550000
               AND &IECSQ(3) AND &IECSQ(4) AND NOT &IECSEQ(4)).SEQ1     00600000
.SEQ2    ANOP                                                           00650000
&NOCODE  SETB  1                                                        00700000
         MNOTE 12,'MACRO SEQUENCE ERROR'                                00750000
         AGO   .SEQ3                                                    00800000
.SEQ1    ANOP                                                           00850000
         AIF   (&IECSEQ(5) OR &IECSEQ(10) OR &IECSEQ(6)).SEQ2           00900000
.SEQ3    ANOP                                                           00950000
         AIF   (&IECGDSW).TRAN1                                         01000000
&NOCODE  SETB  1                                                        01050000
         MNOTE 12,'TRANSLAT MACRO NOT VALID UNLESS GDU=YES IN CONFIGUR X01100000
               MACRO'                                                   01150000
.TRAN1   ANOP                                                           01200000
         AIF   (T'&TRANSCH NE 'O').TRAN2                                01250000
&NOCODE  SETB  1                                                        01300000
         MNOTE 12,'TRANCH OPERAND CAN NOT BE OMITTED'                   01350000
         AGO   .LEN1                                                    01400000
.TRAN2   ANOP                                                           01450000
         AIF   (K'&TRANSCH EQ 2 ).TRAN4                                 01500000
&NOCODE  SETB  1                                                        01550000
         MNOTE 12,'TRANSCH OPERAND MUST HAVE TWO HEX CHARACTERS ONLY'   01600000
         AGO   .LEN1                                                    01650000
.TRAN4   ANOP                                                           01700000
.TRAN6   ANOP                                                           01750000
&B       SETA  &B+1                                                     01800000
         AIF   ('&TRANSCH' EQ '*051525404B4E505A5B5C'(2*&B,2)).LEN1     01850000
         AIF   ('&TRANSCH' EQ '*5E60616B6F7A7B7C7E7F'(2*&B,2)).LEN1     01900000
         AIF   ('&TRANSCH' EQ '*F0F1F2F3F4F5F6F7F8F9'(2*&B,2)).LEN1     01950000
         AIF   ('&TRANSCH' EQ '*C1C2C3C4C5C6C7C8C9D1'(2*&B,2)).LEN1     02000000
         AIF   ('&TRANSCH' EQ '*D2D3D4D5D6D7D8D9E2E3'(2*&B,2)).LEN1     02050000
         AIF   ('&TRANSCH' EQ '*E4E5E6E7E8E9E9E9E9E9'(2*&B,2)).LEN1     02100000
         AIF   (&B LT 10).TRAN6                                         02150000
&NOCODE  SETB  1                                                        02200000
         MNOTE 12,'TRANSCH OPERAND IS INVALID'                          02250000
.LEN1    ANOP                                                           02300000
.TEXT1   ANOP                                                           02350000
         AIF   (T'&TRANTXT NE 'O').TEXT2                                02400000
&NOCODE  SETB  1                                                        02450000
         MNOTE 12,'TRANTXT OPERAND CAN NOT BE OMITTED'                  02500000
         AGO   .CKGEN                                                   02550000
.TEXT2   ANOP                                                           02600000
         AIF   ('&TRANTXT'(1,1) EQ '''' AND '&TRANTXT'(K'&TRANTXT,1)   X02650000
               EQ '''').TEXT3                                           02700000
&NOCODE  SETB  1                                                        02750000
         MNOTE 12,'TRANTXT OPERAND IN INCORRECT FORMAT'                 02800000
         AGO   .CKGEN                                                   02850000
.TEXT3   ANOP                                                           02900000
&B       SETA  K'&TRANTXT-2                                             02950000
         AIF   (&B GE 1 AND &B LE 14).CKGEN                             03000000
&NOCODE  SETB  1                                                        03050000
         MNOTE 12,'TRANTXT OPERAND DOES NOT HAVE BETWEEN 1 AND 14      X03100000
               CHARACTERS'                                              03150000
.CKGEN   ANOP                                                           03200000
         AIF   (NOT &NOCODE).GEN                                        03250000
         MNOTE 12,'TEXT GENERATION SUPPRESSED'                          03300000
         AGO   .MEND                                                    03350000
.GEN     ANOP                                                           03400000
         AIF   (&IECSQ(6)).GEN1                                         03450000
&IECNDGP(11) SETA 0                                                     03500000
.GEN1    ANOP                                                           03550000
         AIF   (&IECNDGP(11) LT 8).GEN2                                 03600000
&NOCODE  SETB  1                                                        03650000
         MNOTE 12,'NO MORE THAN 8 TRANSLAT MACROS CAN BE CODED'         03700000
         AGO   .CKGEN                                                   03750000
.GEN2    ANOP                                                           03800000
&IECNDGP(11) SETA &IECNDGP(11)+1                                        03850000
         AIF   (&IECSQ(6)).GEN3                                         03900000
*                                                                       03950000
         DC    0H'0'                                                    04000000
IECTRANS EQU   *                                                        04050000
         SPACE 1                                                        04100000
*                      GUIDANCE DISPLAY UNIT TRANSLATE TABLE            04150000
          SPACE 1                                                       04200000
.GEN3    ANOP                                                           04250000
         DC    XL1'&TRANSCH'       TRANSLATE CHARACTER                  04300000
         DC    YL1(&B)             LENGTH BYTE                          04350000
         DC    CL14&TRANTXT        TRANSLATE TEXT                       04400000
&B       SETA  &B+2                                                     04450000
&IECNDGP(1) SETA &IECNDGP(1)+16                                         04500000
&IECSQ(6)  SETB 1                                                       04550000
.MEND    MEND                                                           04600000
