         MACRO                                                          00050037
&NAME    TRKCALC &FUNCTN=,&DEVTAB=,&TYPE=,&UCB=,&BALANCE=,&REMOVE=,    C00100037
               &MAXSIZE=,&REGSAVE=,&RKDD=,&R=,&K=,&DD=,&LAST=,&MF=I     00150037
.***** START OF SPECIFICATIONS **************************************** 00200037
.*                                                                      00250037
.* MODULE NAME - TRKCALC                                                00300037
.*                                                                      00350037
.* DESCRIPTIVE NAME -                                                   00400037
.*      SYSTEM TRACK ALGORITHM ROUTINE (STAR) SERVICE MACRO             00450037
.*                                                                      00500037
.* COPYRIGHT - NONE                                                     00550037
.*                                                                      00600037
.* STATUS - NEW                                                         00650037
.*                                                                      00700037
.* FUNCTION -                                                           00750037
.*    THIS MACRO, DEPENDING ON THE VALUE OF THE "MF" PARAMETER,         00800037
.*    PERFORMS ONE OF FOUR BASIC FUNCTIONS RELATED TO ESTABLISHING      00850037
.*    OR MAPPING THE INPUT PARAMETER LIST FOR THE SYSTEM TRACK          00900037
.*    ALGORITHM ROUTINE (STAR). THE FOUR FUNCTIONS ARE DESCRIBED        00950037
.*    BELOW:                                                            01000037
.*                                                                      01050037
.*    MF=I - DEFAULT - WITH A SPECIFICATION OF MF=I, THIS MACRO         01100037
.*       WILL ALLOCATE STORAGE FOR THE STAR PARAMETER LIST AND          01150037
.*       INITIALIZE IT ACCORDING TO THE OPTIONS SELECTED VIA THE        01200037
.*       ALLOWABLE KEYWORDS (SEE BELOW FOR KEYWORD DESCRIPTIONS).       01250037
.*       THIS IS CALLED THE STANDARD-FORM (INSTRUCTION FORMAT) OF       01300037
.*       THE MACRO.                                                     01350037
.*    MF=E - THIS SPECIFICATION WILL RESULT IN THE INITIALIZATION       01400037
.*       OF AN ALREADY EXISTING STAR PARAMETER LIST. THE ADDRESS        01450037
.*       OF THE EXISTING PARAMETER LISTS IS PROVIDED VIA A SECOND       01500037
.*       SUBPARAMETER OF THE "MF" KEYWORD. (SEE THE SECTION BELOW       01550037
.*       ON KEYWORDS FOR THE SOURCE OF THE INITIALIZATION DATA).        01600037
.*       THIS IS CALLED THE EXECUTE-FORM OF THE MACRO.                  01650037
.*                                                                      01700037
.*    NOTE - NO KEYWORDS ARE PROCESSED FOR THE FOLLOWING MACRO FORMS.   01750037
.*                                                                      01800037
.*    MF=L - THIS SPECIFICATION WILL RESULT IN THE ALLOCATION           01850037
.*       OF THE STAR PARAMETER LIST WITHOUT INITIALIZATION. THIS IS     01900037
.*       CALLED THE LIST-FORM OF THE MACRO.                             01950037
.*    MF=D - THIS SPECIFICATION WILL RESULT IN THE GENERATION OF A      02000037
.*       MAPPING OF THE SYMBOLS USED TO ADDRESS THE FIELDS AND          02050037
.*       FLAGS OF THE STAR PARAMETER LIST. THE CALLER MUST PROVIDE      02100037
.*       A "DSECT" STATEMENT IN ORDER TO OBTAIN SYMBOLIC ADDRESSING     02150037
.*       WITHOUT STORAGE ALLOCATION. THIS IS CALLED THE DSECT-FORM      02200037
.*       OF THE MACRO.                                                  02250037
.*                                                                      02300037
.*    KEYWORDS- (APPLICABLE ONLY FOR MF=I AND MF=E FORMS)               02350037
.*       FUNCTN - USED TO REQUEST TRACK BALANCE (TRKBAL) OR TRACK       02400037
.*          CAPACITY (TRKCAP) FUNCTIONS.                                02450037
.*       NOTE 1 - A SPECIAL OPTION IS PROVIDED TO ALLOW A TRKCALC CALL  02500037
.*                WITH THE 'FUNCTN' KEYWORD OMITTED. THIS OPTION IS     02550037
.*                ALLOWED ONLY IF THE KEYWORD MF=E IS CODED. IF THE     02600037
.*                'FUNCTN' KEYWORD IS OMITTED, NO INSTRUCTION WILL BE   02650037
.*                GENERATED TO SET THE PARAMETER LIST FLAGS. THUS,      02700037
.*                THE MUTUALLY EXCLUSIVE TEST FOR FUNCTN=TRKCAP AND     02750037
.*                REMOVE=YES, MAXSIZE=YES, AND LAST=YES IS BYPASSED.    02800037
.*                ALSO, THE FOLLOWING NOTE (2) DOES NOT APPLY.          02850037
.*       NOTE 2 - ONE OF THE FOLLOWING THREE KEYWORDS (DEVTAB,          02900037
.*                TYPE, OR UCB) MUST BE PROVIDED WHEN THE 'FUNCTN'      02950037
.*                KEYWORD IS CODED. THIS IS TO ENSURE A SOURCE FOR THE  03000037
.*                DEVICE CHARACTERISTICS TABLE. IF THE PARAMETER LIST   03050037
.*                HAS BEEN PREVIOUSLY SET WITH A SOURCE, THEN AN '*'    03100037
.*                SHOULD BE CODED AS THE INPUT VALUE FOR THE PROPER     03150037
.*                SOURCE KEYWORD. THIS WILL RESULT IN THE PROPER SOURCE 03200037
.*                FLAG SETTING WITHOUT ACTUALLY GENERATING THE CODE TO  03250037
.*                STORE THE DVCT.                                       03300037
.*       DEVTAB - USED TO SUPPLY THE ADDRESS OF THE DEVICE CHARACTER-   03350037
.*          ISTICS TABLE ENTRY.                                         03400037
.*       TYPE - USED TO SUPPLY THE UCB DEVICE TYPE VIA THE LOW ORDER    03450037
.*          BYTE OF A REGISTER OR AN ADDRESS. UCB TYPE IS USED BY STAR  03500037
.*          TO FIND THE DEVICE CHARACTERISTICS TABLE ENTRY.             03550037
.*       UCB - USED TO PROVIDE THE ADDRESS OF THE UCB. STAR WILL        03600037
.*          EXTRACT THE DEVICE TYPE TO FIND THE PROPER DEVICE CHAR-     03650037
.*          ACTERISTICS TABLE ENTRY.                                    03700037
.*       BALANCE - USED TO PROVIDE THE ADDRESS OF A TRACK BALANCE TO BE 03750037
.*          USED BY STAR IN THE CAPACITY AND BALANCE ALGORITHMS.        03800037
.*       RKDD - USED TO SUPPLY THE ADDRESS OF A FULL WORD CONTAINING    03850037
.*          A RECORD NUMBER, KEY LENGTH, AND DATA LENGTH OR TO DESIG-   03900037
.*          NATE A REGISTER CONTAINING SAME. THE FOLLOWING THREE KEY-   03950037
.*          WORDS SUPPLY THE SAME DATA, BUT FROM SEPARATE SOURCES.      04000037
.*                                                                      04050037
.*       NOTE - THE FOLLOWING THREE KEYWORDS PROVIDE THE CAPABILITY     04100037
.*              FOR THE CALLER TO CODE THE RECORD NUMBER, KEY LENGTH,   04150037
.*              AND DATA LENGTH AS SELF-DEFINING DECIMAL VALUES         04200037
.*              (REFERRED TO HERE AS IMMEDITATE DATA).                  04250037
.*                                                                      04300037
.*       R - USED TO PROVIDE THE SUBJECT RECORD NUMBER VIA THE LOW-     04350037
.*           ORDER BYTE OF A REGISTER, A STORAGE ADDRESS, OR IMMEDIATE  04400037
.*           DATA.                                                      04450037
.*       K - USED TO PROVIDE THE SUBJECT KEY LENGTH VIA THE LOW-ORDER   04500037
.*           BYTE OF A REGISTER, A STORAGE ADDRESS, OR IMMEDIATE        04550037
.*           DATA.                                                      04600037
.*       DD - USED TO PROVIDE THE SUBJECT DATA LENGTH VIA THE LOW-ORDER 04650037
.*           BYTE OF A REGISTER, A STORAGE ADDRESS, OR IMMEDIATE        04700037
.*           DATA.                                                      04750037
.*                                                                      04800037
.*       NOTE - THE FOLLOWING THREE KEYWORDS (REMOVE, MAXSIZE, AND      04850037
.*              LAST) ARE VALID ONLY WHEN 'FUNCTN=TRKBAL' IS CODED.     04900037
.*              THEY ARE IGNORED IF 'FUNCTN' IS OMITTED.                04950037
.*                                                                      05000037
.*       REMOVE - USED TO OPTIONALLY REQUEST THE DELETION OF A RECORD   05050037
.*          DURING A TRACK BALANCE REQUEST.                             05100037
.*       MAXSIZE - USED TO OPTIONALLY REQUEST A COUNT OF THE RESIDUAL   05150037
.*          DATA BYTES ON A TRACK AFTER IT IS FOUND THAT ANOTHER WHOLE  05200037
.*          RECORD WILL NOT FIT DURING A TRACK BALANCE REQUEST.         05250037
.*       LAST - A SPECIAL OPTION MADE AVAILABLE FOR ISAM. IF SPECIFIED, 05300037
.*          THE OVERHEAD FOR THE LAST RECORD IS USED IN CALCULATING     05350037
.*          A NEW TRACK BALANCE.                                        05400037
.*       REGSAVE - USED TO OPTIONALLY REQUEST SAVING AND RESTORING      05450037
.*          REGISTERS 1 - 14 ACROSS THE INVOCATION OF STAR.             05500037
.*       MF - USED TO SPECIFY WHICH FORM OF THE TRKCALC MACRO IS        05550037
.*          DESIRED. SEE OPENING PARAGRAPH ABOVE.                       05600037
.*                                                                      05650037
.*    INTERNAL PROCESSING FOR THE I AND E FORMS OF THE MACRO IS         05700037
.*    CONTROLLED BY A NUMBER OF LOCAL BINARY AND CHARACTER              05750037
.*    VARIABLES. THE L AND D FORMS OF THE MACRO ARE HANDLED BY          05800037
.*    DIRECT PATHS THROUGH THE MACRO AND AS SUCH DO NOT INVOLVE THE     05850037
.*    USE OF LOCAL VARIABLES. FOLLOWING ARE THE DESCRIPTIONS OF THE     05900037
.*    THE LOCAL VARIABLES USED FOR THE I AND E FORMS:                   05950037
.*                                                                      06000037
.*    LCLC'S -                                                          06050037
.*       &FUNFLG - 'B' = TRKBAL FUNCTION REQUESTED                      06100037
.*               - 'C' = TRKCAP FUNCTION REQUESTED                      06150037
.*               - (OMITTED) = USE FUNCTION FLAGS FROM LAST CALL        06200037
.*       &SAVAREA - 'NO' = DON'T SAVE AND RESTORE REGISTERS             06250037
.*                  'YES' = SAVE AND RESTORE REGISTERS                  06300037
.*       &SET(1) - DVCT SOURCE WITH POSSIBLE PARENTHESES REMOVED: DVCT  06350037
.*                 ADDRESS, UCB ADDRESS, OR DEVICE TYPE (ADDRESS        06400037
.*                 OR IMMEDIATE DATA)                                   06450037
.*       &SET(2) - RKDD PARAMETER VALUE WITH POSSIBLE PARENTHESES       06500037
.*                 REMOVED                                              06550037
.*       &SET(3) - R PARAMETER VALUE WITH POSSIBLE PARENTHESES REMOVED  06600037
.*       &SET(4) - K PARAMETER VALUE WITH POSSIBLE PARENTHESES REMOVED  06650037
.*       &SET(5) - DD PARAMETER VALUE WITH POSSIBLE PARENTHESES REMOVED 06700037
.*       &SET(6) - BALANCE PARAMETER VALUE WITH POSSIBLE PARENTHESES    06750037
.*                 REMOVED                                              06800037
.*       &SKIP - 'P3' = RKDD PARAMETER NOT SPECIFIED                    06850037
.*       &FLGA(1) - 'R' = &SET(1) (DVCT SOURCE PARAMETER) IS IN         06900037
.*                        REGISTER FORMAT                               06950037
.*                - 'A' = &SET(1) (DVCT SOURCE PARAMETER) IS IN ADDRESS 07000037
.*                        FORMAT                                        07050037
.*       &FLGA(2) - 'R' = RKDD PARAMETER IS IN REGISTER FORMAT          07100037
.*                - 'A' = RKDD PARAMETER IS IN ADDRESS FORMAT           07150037
.*       &FLGA(3) - 'R' = BALANCE PARAMETER IS IN REGISTER OR IMMED-    07200037
.*                        IATE DATA FORMAT                              07250037
.*                - 'A' = BALANCE PARAMETER IS IN ADDRESS FORMAT        07300037
.*       &FLGA(4) - 'R' = R PARAMETER IS IN REGISTER FORMAT             07350037
.*       &FLGA(5) - 'R' = K PARAMETER IS IN REGISTER FORMAT             07400037
.*       &FLGA(6) - 'R' = DD PARAMETER IS IN REGISTER FORMAT            07450037
.*       &LABEL - AID TO VARIABLE LABEL ASSIGNMENT                      07500037
.*       &BITS - USED TO COLLECT BIT SWITCHES FOR STAR PARM FLAGS       07550037
.*                                                                      07600037
.*    LCLB'S                                                            07650037
.*       &BIT(1) - 0 = TRKBAL REQUESTED OR FUNCTN WAS OMITTED           07700037
.*               - 1 = TRKCAP REQUESTED                                 07750037
.*       &BIT(2) - 0 = REMOVE OPTION NOT REQUESTED                      07800037
.*               - 1 = REMOVE OPTION REQUESTED                          07850037
.*       &BIT(3) - 0 = MAXSIZE OPTION NOT REQUESTED                     07900037
.*               - 1 = MAXSIZE OPTION REQUESTED                         07950037
.*       &BIT(4) - 0 = BALANCE NOT PROVIDED CALLER                      08000037
.*               - 1 = BALANCE PROVIDED BY CALLER                       08050037
.*       &BIT(5) - 0 = LAST OPTION NOT REQUESTED                        08100037
.*               - 1 = LAST OPTION REQUESTED                            08150037
.*       &BIT(6&7) - 00 = DVCT ENTRY ADDRESS PROVIDED                   08200037
.*                   01 = NOT USED                                      08250037
.*                   10 = UCB ADDRESS PROVIDED                          08300037
.*                   11 = DEVICE TYPE (ADDRESS OR IMMEDIATE) PROVIDED   08350037
.*       &QUIT - 0 = SUCCESSFUL PARAMETER LIST CONSTRUCTION             08400037
.*             - 1 = ERRORS DETECTED. DO NOT GENERATE ANY CODE          08450037
.*       &MSG - 0 = NO INFORMATION/WARNING MESSAGES ISSUED              08500037
.*              1 = INFORMATION/WARNING MESSAGES ISSUED                 08550037
.*                                                                      08600037
.* NOTES - N/A                                                          08650037
.*                                                                      08700037
.* MODULE TYPE - MACRO                                                  08750037
.*                                                                      08800037
.* ENTRY POINT - N/A                                                    08850037
.*                                                                      08900037
.* INPUT - SEE DESCRIPTION OF KEYWORDS UNDER "FUNCTION".                08950037
.*                                                                      09000037
.* OUTPUT - SEE OPENING PARAGRAPH UNDER "FUNCTION".                     09050037
.*                                                                      09100037
.* EXIT, NORMAL - RETURN TO CALLER WITH A SEVERITY CODE OF 0            09150037
.*                                                                      09200037
.* EXIT, ERROR - RETURN TO CALLER WITH A SEVERITY CODE OF:              09250037
.*                  4 - IF ASSUMPTIONS HAD TO BE MADE REGARDING         09300037
.*                      KEYWORD VALUES.                                 09350037
.*                  8 - IF UNRECOVERABLE ERRORS ARE DETECTED.           09400037
.*                                                                      09450037
.* EXTERNAL REFERENCES - N/A                                            09500037
.*                                                                      09550037
.* TABLES - N/A                                                         09600037
.*                                                                      09650037
.* MACROS - IHBINNRA                                                    09700037
.*                                                                      09750037
.* CHANGE ACTIVITY - NONE                                               09800037
.*                                                                      09850037
.***** END OF SPECIFICATIONS ****************************************** 09900037
         LCLC  &FUNFLG,&SAVAREA,&SET(6),&SKIP,&FLGA(6),&LABEL,&BITS     09950037
         LCLB  &BIT(7),&QUIT,&MSG                                       10000037
&LABEL   SETC  '&NAME'                                                  10050037
         AIF   ('&MF' EQ 'L').LIST      BR IF LIST OPTION               10100037
         AIF   ('&MF' EQ 'D').DSECT     BR IF DSECT OPTION              10150037
*                                                                       10200037
*   STAR USES REGISTERS; 0(OUTPUT),1,9,10,11,14, AND 15(RETURN CODE)    10250037
*                                                                       10300037
.********************************************************************** 10350037
.*    KEYWORD SYNTAX CHECKING FOLLOWS                                   10400037
.********************************************************************** 10450037
.*                                                                      10500037
.********************************************************************** 10550037
.*    CHECK SYNTAX OF REGSAVE KEYWORD                                   10600037
.********************************************************************** 10650037
         AIF   (T'&REGSAVE EQ 'O').NOSAVE                               10700037
         AIF   ('&REGSAVE' EQ 'NO').NOSAVE                              10750037
         AIF   ('&REGSAVE' EQ 'YES').SAVE                               10800037
         SPACE 1                                                        10850037
         MNOTE 4,'REGSAVE= OPERAND NOT RECOGNIZED; ''NO'' IS ASSUMED'   10900037
&MSG     SETB  1                        INDICATE MESSAGE ISSUED         10950037
.NOSAVE  ANOP                                                           11000037
&SAVAREA SETC  'NO'                     INDICATE REG SAVING NOT REQ'D   11050037
         AGO   .SYNTAX                                                  11100037
.SAVE    ANOP                                                           11150037
*   REGSAVE OPTION SPECIFIED; ALL REGISTERS BUT 0 AND 15 WILL BE        11200037
*   SAVED AND RESTORED.                                                 11250037
*                                                                       11300037
&SAVAREA SETC  'YES'                    INDICATE REG SAVING REQ'D       11350037
.********************************************************************** 11400037
.*    SYNTAX CHECK OF FUNCTN KEYWORD                                    11450037
.********************************************************************** 11500037
.SYNTAX  ANOP                                                           11550037
         AIF   (T'&FUNCTN EQ 'O').NOFUNC                                11600037
         AIF   ('&FUNCTN' EQ 'TRKBAL').BALFUN                           11650037
         AIF   ('&FUNCTN' EQ 'TRKCAP').CAPFUN                           11700037
         SPACE 1                                                        11750037
         MNOTE 8,'FUNCTN= OPERAND INVALID; PROCESSING TERMINATED'       11800037
         SPACE 1                                                        11850037
         MEXIT                          ABORT - CAN'T VALIDATE          11900037
.*                                      REMAINING KEYWORD CONFLICTS     11950037
.NOFUNC  ANOP                                                           12000037
         AIF   ('&MF' NE 'I').NOPROBM   FUNCTN OMITTED AND MF=E IS OK   12050037
         SPACE 1                                                        12100037
         MNOTE 8,'FUNCTN= CAN NOT BE OMITTED WITH MF=I; PROCESSING TERMI12150037
               INATED'                                                  12200037
         SPACE 1                                                        12250037
         MEXIT                                                          12300037
.BALFUN  ANOP                                                           12350037
&FUNFLG  SETC  'B'                      INDICATE TRKBAL REQ'D           12400037
.NOPROBM ANOP                                                           12450037
&BIT(1)  SETB  0                        SET TRKBAL/OMITTED FLG FOR      12500037
.*                                      STAR PARMS                      12550037
         AGO   .TRKC010                                                 12600037
.CAPFUN  ANOP                                                           12650037
&FUNFLG  SETC  'C'                      INDICATE TRKCAP REQ'D           12700037
&BIT(1)  SETB  1                        SET TRKCAP FLG FOR STAR PARMS   12750037
.********************************************************************** 12800037
.*   CHECK SYNTAX OF DEVTAB KEYWORD                                     12850037
.********************************************************************** 12900037
.TRKC010 ANOP                                                           12950037
&BIT(6)  SETB  0                        INIT SOURCE FLAGS               13000037
&BIT(7)  SETB  0                        FOR DVCT ADDR                   13050037
         AIF   (T'&DEVTAB EQ 'O').TRKC020                               13100037
         AIF   ('&DEVTAB'(1,1) NE '(').DEVADDR                          13150037
         AIF   (N'&DEVTAB GT 1).DEVBAD                                  13200037
&SET(1)  SETC  '&DEVTAB(1)'             SAVE KEYW VALUE W/O PARENS      13250037
&FLGA(1) SETC  'R'                      INDICATE REG-FORM               13300037
         AGO   .TRKC020                 ON TO NEXT KEYW                 13350037
.DEVADDR ANOP                                                           13400037
&SET(1)  SETC  '&DEVTAB'                SAVE KEYW VALUE                 13450037
&FLGA(1) SETC  'A'                      INDICATE ADDR-FORM              13500037
         AGO   .TRKC020                 ON TO NEXT KEYW                 13550037
.DEVBAD  ANOP                                                           13600037
         SPACE 1                                                        13650037
         MNOTE 8,'DEVTAB= OPERAND INVALID; NO CODE PRODUCED'            13700037
&QUIT    SETB  1                        DEFER TERMINATION               13750037
.********************************************************************** 13800037
.*  CHECK SYNTAX OF TYPE KEYWORD                                        13850037
.********************************************************************** 13900037
.TRKC020 ANOP                                                           13950037
         AIF   (T'&TYPE EQ 'O').TRKC030                                 14000037
         AIF   ('&FLGA(1)' NE '').DEVBAD2  HAVE DVCT SOURCE ALREADY?    14050037
         AIF   ('&TYPE'(1,1) NE '(').TYPADDR                            14100037
         AIF   (N'&TYPE GT 1).TYPEBAD                                   14150037
&SET(1)  SETC  '&TYPE(1)'               SAVE KEYW VALUE W/O PARENS      14200037
&FLGA(1) SETC  'R'                      INDICATE REG-FORM               14250037
         AGO   .SETTYPE                 ON TO SETTING OF TYPE FLG       14300037
.TYPADDR ANOP                                                           14350037
&SET(1)  SETC  '&TYPE'                  SAVE KEYW VALUE                 14400037
&FLGA(1) SETC  'A'                      INDICATE ADDR-FORM              14450037
.SETTYPE ANOP                                                           14500037
&BIT(6)  SETB  1                        SET TYPE FLGS FOR               14550037
&BIT(7)  SETB  1                        STAR PARMS                      14600037
         AGO   .TRKC030                 ON TO NEXT KEYW                 14650037
.TYPEBAD ANOP                                                           14700037
         SPACE 1                                                        14750037
         MNOTE 8,'TYPE= OPERAND INVALID; NO CODE PRODUCED'              14800037
&QUIT    SETB  1                        DEFER TERMINATION               14850037
.********************************************************************** 14900037
.*  CHECK SYNTAX OF UCB KEYWORD                                         14950037
.********************************************************************** 15000037
.TRKC030 ANOP                                                           15050037
         AIF   (T'&UCB EQ 'O').TRKC040                                  15100037
         AIF   ('&FLGA(1)' NE '').DEVBAD2  HAVE DVCT SOURCE ALREADY?    15150037
         AIF   ('&UCB'(1,1) NE '(').UCBADDR                             15200037
         AIF   (N'&UCB GT 1).UCBBAD                                     15250037
&SET(1)  SETC  '&UCB(1)'                SAVE KEYW VALUE W/O PARENS      15300037
&FLGA(1) SETC  'R'                      INDICATE REG-FORM               15350037
         AGO   .SETUCB                  ON TO SETTING UCB FLG           15400037
.UCBADDR ANOP                                                           15450037
&SET(1)  SETC  '&UCB'                   SAVE KEYW VALUE                 15500037
&FLGA(1) SETC  'A'                      INDICATE ADDR-FORM              15550037
.SETUCB  ANOP                                                           15600037
&BIT(6)  SETB  1                        SET UCB FLG FOR STAR PARMS      15650037
         AGO   .TRKC040                 ON TO NEXT KEYW                 15700037
.DEVBAD2 ANOP                                                           15750037
         SPACE 1                                                        15800037
         MNOTE 8,'DEVTAB=, TYPE=, AND UCB= OPERANDS ARE MUTUALLY EXCLUSI15850037
               IVE;              NO CODE PRODUCED'                      15900037
&QUIT    SETB  1                        DEFER TERMINATION               15950037
         AGO   .TRKC040                 ON TO NEXT KEYW                 16000037
.UCBBAD  ANOP                                                           16050037
         SPACE 1                                                        16100037
         MNOTE 8,'UCB= OPERAND INVALID; NO CODE PRODUCED'               16150037
&QUIT    SETB  1                        DEFER TERMINATION               16200037
.********************************************************************** 16250037
.*  ENSURE THAT A SOURCE (DEVTAB, UCB, OR TYPE) FOR THE DEVICE CHAR-    16300037
.*  ACTERISTICS TABLE WAS PROVIDED. IF NOT, DEFAULT TO A RESIDUAL       16350037
.*  DEVTAB ADDRESS AS THE DVCT SOURCE.                                  16400037
.********************************************************************** 16450037
.TRKC040 ANOP                                                           16500037
         AIF   (T'&FUNCTN EQ 'O').TRKC045  BR, IF FUNCTN NOT PROVIDED - 16550037
.*                                      SOURCE ASSUMED, FLGS NOT SET    16600037
         AIF   ('&FLGA(1)' NE '').TRKC045  BR, IF DVCT SOURCE GIVEN     16650037
.*  AT THIS POINT IF &QUIT=1, THE CALLER PROVIDED A SOURCE FOR THE      16700037
.*  DVCT BUT IT WAS IN ERROR.                                           16750037
         AIF   (&QUIT).TRKC045          BR, IF &QUIT=1                  16800037
         SPACE 1                                                        16850037
         MNOTE 4,'DVCT SOURCE (DEVTAB=, UCB=, OR TYPE=) IS MISSING;    X16900037
                                 DEVTAB=* IS ASSUMED'                   16950037
&SET(1)  SETC  '*'                      INDICATE A RESIDUAL DEVTAB      17000037
&MSG     SETB  1                        INDICATE MESSAGE ISSUED         17050037
.********************************************************************** 17100037
.*  CHECK SYNTAX OF RKDD KEYWORD                                        17150037
.********************************************************************** 17200037
.TRKC045 ANOP                                                           17250037
         AIF   (T'&RKDD EQ 'O').TRKC050                                 17300037
         AIF   ('&RKDD'(1,1) NE '(').DORKDD                             17350037
         AIF   (N'&RKDD GT 1).RKDDBAD                                   17400037
&SET(2)  SETC  '&RKDD(1)'               SAVE KEYW VALUE W/O PARENS      17450037
&FLGA(2) SETC  'R'                      INDICATE REG-FORM               17500037
         AGO   .TSTDUP                                                  17550037
.DORKDD  ANOP                                                           17600037
         AIF   (T'&RKDD EQ 'N').RKDDBAD  BR IF IMMEDIATE-FORM; ERROR    17650037
&SET(2)  SETC  '&RKDD'                  SAVE KEYW VALUE                 17700037
&FLGA(2) SETC  'A'                      INDICATE ADDR-FORM              17750037
         AGO   .TSTDUP                                                  17800037
.RKDDBAD ANOP                                                           17850037
         SPACE 1                                                        17900037
         MNOTE 8,'RKDD= OPERAND INVALID; NO CODE PRODUCED'              17950037
&QUIT    SETB  1                        DEFER TERMINATION               18000037
.********************************************************************** 18050037
.*  SYNTAX CHECK FOR R, K, AND DD KEYWORDS                              18100037
.********************************************************************** 18150037
.TSTDUP  AIF   (T'&R NE 'O' OR T'&K NE 'O').MLTXERR  RKDD AND R, K, OR  18200037
         AIF   (T'&DD EQ 'O').TRKC060   DD ARE MUTUALLY EXCLUSIVE       18250037