         MACRO                                                          00020000
&NAME    TRNSLATE  &DCB,&TABLE,&AREA,&LENGTH                            00040000
.*                           SWITCHES                                   00100000
         LCLB  &DO                                                      00120000
         LCLB  &DS                                                      00140000
         LCLB  &TS                                                      00160000
         LCLB  &AS                                                      00180000
         LCLB  &LS                                                      00200000
         LCLC  &PRE                                                     00220000
.*                                                                      00240000
&NAME    DS    0H                                                       00280000
.*                                                                      00300000
.D       AIF   (T'&DCB NE 'O').D1                                       00320000
&DO      SETB  1                                                        00340000
         AGO   .T                                                       00360000
.D1      AIF   ('&DCB'(1,1) NE '(' OR '&DCB'(K'&DCB,1) NE ')').T        00380000
&DS      SETB  1                                                        00400000
.*                                                                      00420000
.T       AIF   (T'&TABLE EQ 'O').ERR1                                   00440000
         AIF   ('&TABLE'(1,1) NE '(' OR '&TABLE'(K'&TABLE,1) NE ')').T1 00460000
&TS      SETB  1                                                        00480000
         AGO   .A                                                       00500000
.T1      AIF   (K'&TABLE NE 4).A                                        00520000
         AIF   ('&TABLE' EQ 'RC30').BTCD                                00540000
         AIF   ('&TABLE' EQ 'RC40').BTCD                                00560000
         AIF   ('&TABLE' EQ 'RF40').BTCD                                00580000
         AIF   ('&TABLE' EQ 'RC50').BTCD                                00600000
         AIF   ('&TABLE' EQ 'RF50').BTCD                                00620000
         AIF   ('&TABLE' EQ 'RC60').BTCD                                00640000
         AIF   ('&TABLE' EQ 'RSCI').BTCD    BRANCH IF TABLE IS BTAM     00660000
         AIF   ('&TABLE' EQ 'RCT1').BTCD                                00680000
         AIF   ('&TABLE' EQ 'RCT2').BTCD    TRANSLATE TABLE CODE        00700000
         AIF   ('&TABLE' EQ 'SD30').BTCD                                00720000
         AIF   ('&TABLE' EQ 'SD40').BTCD                                00740000
         AIF   ('&TABLE' EQ 'SD50').BTCD                                00760000
         AIF   ('&TABLE' EQ 'SD60').BTCD                                00780000
         AIF   ('&TABLE' EQ 'SSCI').BTCD                                00800000
         AIF   ('&TABLE' EQ 'SCT1').BTCD                                00820000
         AIF   ('&TABLE' EQ 'SCT2').BTCD                                00840000
         AIF   ('&TABLE' EQ 'RASA').BTCD                                00844014
         AIF   ('&TABLE' EQ 'RC80').BTCD                                00848014
         AIF   ('&TABLE' EQ 'SASA').BTCD                                00852014
         AIF   ('&TABLE' EQ 'SD80').BTCD                                00856014
         AIF   ('&TABLE' EQ 'SD41').BTCD                                00856118
         AIF   ('&TABLE' EQ 'SB40').BTCD                                00856218
         AIF   ('&TABLE' EQ 'RC41').BTCD                                00856318
         AIF   ('&TABLE' EQ 'RF41').BTCD                                00856418
         AIF   ('&TABLE' EQ 'RB40').BTCD                                00856518
         AIF   ('&TABLE' EQ 'RU40').BTCD                                00856618
         AIF   ('&TABLE' EQ 'RCTW').BTCD                           000G 00856817
         AIF   ('&TABLE' EQ 'RCT3').BTCD                           000G 00857617
         AIF   ('&TABLE' EQ 'SCTW').BTCD                           000G 00858417
         AIF   ('&TABLE' EQ 'SCT3').BTCD                           000G 00859217
         AGO   .A                                                       00860000
.BTCD    ANOP                                                           00880000
&PRE     SETC  'IECT'                                                   00900000
.*                                                                      00920000
.A       AIF   ('&AREA'(1,1) NE '(' OR '&AREA'(K'&AREA,1) NE ')').L     00940000
&AS      SETB  1                                                        00960000
.*                                                                      00980000
.L       AIF   ('&LENGTH'(1,1)EQ'(' AND '&LENGTH'(K'&LENGTH,1)EQ')').L1 01000000
         AIF   ('&LENGTH' NE '''S''').PRMLST                    ZA85817 01024990
         LA    0,1                                               A38564 01030021
         SLL   0,31                                              A38564 01040021
&LS      SETB  1                                                ZA85817 01049021
         AGO   .PRMLST                                                  01060000
.L1      ANOP                                                           01089990
&LS      SETB  1                                                        01099980
         AIF   ('&LENGTH' EQ '(0)').PRMLST                              01109970
         LA    0,0(&LENGTH(1))                                  ZA85817 01119960
.*                           PARAMETER LIST                             01160000
.PRMLST  CNOP  0,4                                                      01180000
         AIF   (&LS).B1                                         ZA85817 01205990
         BAL   1,*+20                                           ZA85817 01211980
         AGO   .B2                                              ZA85817 01217970
.B1      BAL   1,*+16                                           ZA85817 01223960
.B2      AIF   (&DO OR &DS).P1                                  ZA85817 01229950
         DC    A(&DCB(1))                                               01240000
         AGO   .P2                                                      01260000
.P1      DC    A(0)                                                     01280000
.P2      AIF   (&TS).P3                                                 01300000
         DC    A(&PRE.&TABLE(1))                                        01320000
         AGO   .P4                                                      01340000
.P3      DC    A(0)                                                     01360000
.P4      AIF   (&AS).P5                                                 01380000
         DC    A(&AREA(1))                                              01400000
         AGO   .LT                                              ZA85817 01429990
.P5      DC    A(0)                                                     01440000
.LT      AIF   (&LS).R                                          ZA85817 01445000
         DC    A(&LENGTH(1))                                    ZA85817 01450000
         L     0,12(1)                                          ZA85817 01455000
.R       AIF   (&DO).TT                                                 01460000
         AIF   (NOT &DS).TT                                             01480000
         ST    &DCB(1),0(1)                                             01500000
.TT      AIF   (NOT &TS).AT                                             01520000
         ST    &TABLE(1),4(1)                                           01540000
.AT      AIF   (NOT &AS).LINKAGE                                        01560000
         ST    &AREA(1),8(1)                                            01580000
.*                           CALL TRANSLATE ROUTINE                     01600000
.LINKAGE L     15,*+8                                                   01620000
         B     *+8                                                      01640000
         DC    V(IECTTRNS)                                              01660000
         BALR  14,15                                                    01680000
         MEXIT                                                          01700000
.ERR1    MNOTE 12,'***  IHB001  TABLE OPERAND REQ''D-NOT SPECIFIED'     01720000
.END     ANOP                                                           01740000
         MEND                                                           01760000
