         MACRO                                                          00020000
&NAME    TRUNC  &DCB,&DUMMY=                                            00040017
         AIF   ('&DCB' EQ '').E1                                        00060000
&NAME    IHBINNRA &DCB                                                  00080000
         L     15,48(0,1)                        LOAD REG 15 FROM DCB   00100000
         BAL   14,8(0,15)                        LINK TO TRUNC ROUTINE  00120000
         MEXIT                                                          00140000
.E1      IHBERMAC 6                     DCB MISSING                     00160018
         MEND                                                           00180000
