         MACRO                                                          01000020
&NAME    TTABLE &LAST=,&MAXLEN=,&Y=(4,2,2,2,4,2,1,0),&S=(1,1,0,0,0,0,1,*02000020
               0),&OLTERM=0                                      S99528 03000022
.*A-000000-999999                                              @Y10X5O0 03005010
         GBLA  &IEDQAR(64),&IEDNCT                               S99528 03010022
         GBLB  &IEDQZA(64)                                              05000020
         GBLC  &IEDQSV(8)                                               06000020
         LCLA  &A                                                       07000020
.*       VERSION DATED SEPTEMBER 12, 1974                      @Z30X8OE 07100010
.*A685000                                                        X01004 07130004
.*C690000                                                        X01004 07160004
.*C030000-XXXXXX,190000-XXXXXX                                   S99528 07200022
.*A235000                                                        S22025 07300022
.*C190200                                                       SA56318 07300122
.*A030000,260000,450000,500000,680000                          @Z30X8OE 07300210
.*C071000,370000,390000-440000,610000-660000                   @Z30X8OE 07300310
         AIF   (NOT &IEDQZA(55)).SP                                     08000020
         MNOTE 12,'***IHB067 TTABLE MACRO PREVIOUSLY USED'              09000020
         MEXIT                                                          10000020
.SP      SPACE 2                                                        11000020
         AIF   ('&LAST' EQ '').ERR2                                     12000020
&IEDQAR(1)  SETA  K'&LAST+3                                             13000020
         AIF   ('&MAXLEN' EQ '').GEN                                    14000020
         AIF   ('&MAXLEN' LT '1' OR '&MAXLEN' GT '8').ERR               15000020
         AIF   (K'&LAST EQ &MAXLEN).GEN                                 16000020
         AIF   (K'&LAST GT &MAXLEN).ERR                                 17000020
&IEDQAR(1)  SETA  &MAXLEN+3                                             18000020
.GEN     AIF   (&IEDQAR(1) LT 4 OR &IEDQAR(1) GT 11).ERR3               19000020
         AIF   (&OLTERM LE 255).CON                              S99528 19010022
         MNOTE 12,'*** IED904 OLTERM GREATER THAN 255'          SA56318 19020022
         MEXIT                                                          19025022
&IEDNCT  SETA  0                                                 S99528 19030022
.CON     ANOP                                                    S99528 19040022
&IEDNCT  SETA  &OLTERM                                           S99528 19050022
&IEDQZA(55)  SETB  1                                                    20000020
&IEDQAR(7)  SETA  1                                                     21000020
&IEDQAR(8)  SETA  1                                                     22000020
&IEDQAR(9)  SETA  1                                                     23000020
&IEDQAR(44) SETA 1                                               S22025 23500022
&IEDQSV(5)  SETC  '&LAST'                                               24000020
&IEDQSV(4)  SETC  '&SYSECT'                                             25000020
IEDQTNT  CSECT                                                          26000020
         N     1,78(15)                 CLEAR SIGN PROPAGATION @Z30X8OE 26500010
         AIF   (&IEDQAR(1) EQ 4 OR &IEDQAR(1) EQ 8).SL                  27000020
         AIF   (&IEDQAR(1) NE 6 AND &IEDQAR(1) NE 10).CY                28000020
         AR    1,1 .                    DOUBLE                          29000020
.CY      LR    0,1 .                    SAVE                            30000020
         AIF   (&IEDQAR(1) NE 6).SL                                     31000020
.SE      AR    0,0  .                   DOUBLE                          32000020
.AR      AR    1,0 .                    COMBINE                         33000020
         AIF   (&IEDQAR(1) NE 11).DN                                    34000020
         AR    0,0 .                    DOUBLE                          35000020
         AR    1,0 .                    COMBINE                         36000020
.DN      ANOP                                                  @Z30X8OE 37000010
&A       SETA  &Y(&IEDQAR(1)-3)                                         38000020
         LA    1,79(1,15)               TRM OFFSET             @Z30X8OE 39000010
         ICM   1,7,0(1)                 TRM ENTRY ADDRESS      @Z30X8OE 41000010
         LR    0,1                     COPY ADDRESS            @Z30X8OE 43000010
         BR    14 .                     RETURN TO CALLER                45000020
         DC    5H'0'                                           @Z30X8OE 45500010
         DS    &A.H                                                     46000020
&NAME    DC    H'0'                                                     47000020
         DC    AL1(&IEDQAR(1)-3) .      LENGTH OF TERM NAMES            48000020
         DC    AL3(&LAST) .             MIDDLE ENTRY                    49000020
         DC    H'00'                                                    50000020
         N     9,78(7)                  CLEAR SIGN PROPAGATION @ZM30196 50500010
         AIF   (&IEDQAR(1) EQ 4 OR &IEDQAR(1) EQ 8).SLX                 51000020
         AIF   (&IEDQAR(1) NE 6 AND &IEDQAR(1) NE 10).CYX               52000020
         AR    9,9 .                    DOUBLE                          53000020
.CYX     LR    8,9 .                    SAVE                            54000020
         AIF   (&IEDQAR(1) NE 6).SLX                                    55000020
.SEX     AR    8,8 .                    DOUBLE                          56000020
.ARX     AR    9,8 .                    COMBINE                         57000020
         AIF   (&IEDQAR(1) NE 11).DNX                                   58000020
         AR    8,8 .                    DOUBLE                          59000020
         AR    9,8 .                    COMBINE                         60000020
.DNX     LA    8,79(9,7)                TRM OFFSET             @Z30X8OE 61000010
         ICM   8,7,0(8)                 TRM ENTRY ADDRESS      @Z30X8OE 64000010
         BR    6 .                      RETURN TO CALLER                67000020
         DS    &A.H                                                     68000020
         DC    4H'0'                                           @Z30X8OE 68100010
         DC    X'FFFF'                                         @Z30X8OE 68200010
IEDQTRMC CSECT                                                   X01004 68500004
         DC    A(IEDQSCBC,IEDQTRME)                              X01004 69000004
         SPACE 2                                                        70000020
         MEXIT                                                          71000020
.SL      SLL   1,3-&S(&IEDQAR(1)-3)                                     72000020
         AIF   (&IEDQAR(1) EQ 4 OR &IEDQAR(1) EQ 8).DN                  73000020
         AIF   (&IEDQAR(1) NE 7).AR                                     74000020
         SR    1,0 .                    DECREMENT                       75000020
         AGO   .DN                                                      76000020
.SLX     SLL   9,3-&S(&IEDQAR(1)-3)                                     77000020
         AIF   (&IEDQAR(1) EQ 4 OR &IEDQAR(1) EQ 8).DNX                 78000020
         AIF   (&IEDQAR(1) NE 7).ARX                                    79000020
         SR    9,8                      DECREMENT                       80000020
         AGO   .DNX                                                     81000020
.ERR     MNOTE 4,'*** IHB002 INVALID MAXLEN OPERAND SPECIFIED- &MAXLEN' 82000020
         AGO   .GEN                                                     83000020
.ERR2    MNOTE 12,'*** IHB001 LAST OPERAND REQ''D- NOT SPECIFIED'       84000020
         SPACE 2                                                        85000020
         MEXIT                                                          86000020
.ERR3    ANOP                                                           87000020
&IEDQAR(1) SETA &IEDQAR(1)-3                                            88000020
         MNOTE 12,'*** IHB002 INVALID LENGTH OF TERMINAL NAMES SPECI-  *89000020
                        FIED- &IEDQAR(1)'                               90000020
         SPACE 2                                                        91000020
         MEND                                                           92000020
