         MACRO                                                          01000016
&NAME    TWAIT &RREG,&TERMTST,&ECBLIST=                                 02000016
         LCLB  &TEST                                                    03000016
         LCLC  &X                                                       04000016
&X       SETC  '&SYSNDX'                                                05000016
&NAME    DS    0H                                                       06000016
         AIF   ('&RREG'(1,1) NE '(').ERR1          RREG MUST BE A REG   07000016
         AIF   ('&RREG'(K'&RREG,1) NE ')').ERR1    CHECK FOR FORM (XX)  08000016
         AIF   (N'&TERMTST EQ 0).TWAIT1          IS TERMTST OMITED      09000016
         AIF   ('&TERMTST' NE 'TERMTST').ERR2      IS TERMTST VALID     10000016
.TWAIT1  AIF   (N'&ECBLIST NE 1).ERR3            IS AN ECBLIST GIVEN    11000016
IECA&X   EQU   *                                                        12000016
         AIF   ('&ECBLIST'(1,1) NE '(').TWAIT3                          13000016
         AIF   ('&ECBLIST'(K'&ECBLIST,1) NE ')').ERR4                   14000016
         AIF   (T'&ECBLIST EQ 'U').TWAIT2                          000A 15000016
         AIF  (NOT ('&ECBLIST(1)' GE '2' AND '&ECBLIST(1)' LE '12')).ERX16000016
               R4                                                  000A 17000016
.*                                                                      18000016
.TWAIT2  LA    1,0(&ECBLIST)                                       000A 19000016
         AGO   .TWAIT4                                                  20000016
.TWAIT3  LA    1,&ECBLIST                                               21000016
.TWAIT4  LR    0,1                 SAVE PARAMETER LIST ADDRESS.         22000016
IECB&X   L     15,0(1)             LOAD ECB ADDRESS.                    23000016
         TM    0(15),X'40'         IS COMPLETE BIT ON?                  24000016
         BNZ   IECC&X                                                   25000016
         TM    0(1),X'80'          IF NOT, TEST FOR END OF LIST.        26000016
         BO    IECD&X                                                   27000016
         LA    1,4(1)              STEP TO NEXT ENTRY IN LIST.          28000016
         B     IECB&X                                                   29000016
.*                                                                      30000016
IECD&X   LR    1,0                 RESTORE PARAMETER LIST REGISTER.     31000016
         LA    0,1                 LOAD WAIT COUNT.                     32000016
         WAIT  (0),ECBLIST=(1)                                          33000016
         B     IECA&X                                                   34000016
IECC&X   LA    &RREG,0(15)    IF ON, LOAD SPECIFIED REGISTER WITH       35000016
*                             ADDRESS OF COMPLETED ECB                  36000016
         LR    15,1                                                     37000016
         SR    15,0                                                     38000016
         MEXIT                                                          39000016
.ERR1    MNOTE 12,'***  IHB079  FIRST OPERAND REGISTER NOTATION REQUIREX40000016
               D'                                                       41000016
         MEXIT                                                          42000016
.ERR2    MNOTE 8,'***  IHB002  INVALID SECOND OPERAND SPECIFIED-&TERMTSX43000016
               T'                                                       44000016
         AGO   .TWAIT1                                                  45000016
.ERR3    MNOTE 12,'***  IHB080  ONE ECBLIST OPERAND ONLY REQUIRED'      46000016
         MEXIT                                                          47000016
.ERR4    MNOTE 12,'***  IHB078  ECBLIST OPERAND REGISTER NOTATION INVALX48000016
               ID-&ECBLIST'                                             49000016
         MEND                                                           50000016
