         MACRO                                                          02000010
&NAME    TYPETABL &MTYPE,&ROUTINE=                                      04000010
         GBLA  &IEDQZK                                                  06000010
         LCLA  &A,&B                                                    08000010
         LCLC  &C                                                       10000010
&C       SETC  '&SYSECT'                                                12000010
         AIF   ('&ROUTINE' NE '').CKRTNE                                12600010
         MNOTE 12,'***  IHB001  ROUTINE OPERAND REQUIRED - NOT SPECIFIE*13200010
               D'                                                       13800010
         AGO   .CKTYPE                                                  13900010
.CKRTNE  ANOP                                                           14000010
         AIF   ('&ROUTINE'(1,1) LE 'Z').CKTYPE                          14100010
         MNOTE 12,'***  IHB300  ROUTINE OPERAND INVALID AS SPECIFIED'   14200010
.CKTYPE  ANOP                                                           14400010
         AIF   ('&MTYPE' NE '').CKNEW                                   15000010
         MNOTE 12,'***  IHB001  MSG TYPE OPERAND REQUIRED - NOT SPECIFI*15600010
               ED'                                                      16200010
         AGO   .GOOD1                                                   16800010
.CKNEW   ANOP                                                           17400010
IEDQMISC CSECT                                                          18000010
         AIF   ('&NAME' EQ '').OLD                                      18500010
         CNOP  0,4                                                      19000010
&A       SETA  8                                                        19500010
.*                             ADJUST IEDQZK FOR CNOP                   20000010
&B       SETA  &IEDQZK                                                  20500010
.DIV100  ANOP                                                           21000010
         AIF   (&B LT 100).DIV4                                         21500010
&B       SETA  &B-100                                                   22000010
         AGO   .DIV100                                                  22500010
.DIV4    ANOP                                                           23000010
         AIF   (&B LT 4).COMPUTE                                        23500010
&B       SETA  &B-4                                                     24000010
         AGO   .DIV4                                                    24500010
.COMPUTE ANOP                                                           25000010
         AIF   (&B EQ 1).THREE                                          25500010
         AIF   (&B EQ 3).ONE                                            26000010
         AGO   .CKK                                                     26500010
.THREE   ANOP                                                           27000010
&B       SETA  3                                                        27500010
         AGO   .CKK                                                     28000010
.ONE     ANOP                                                           28500010
&B       SETA  1                                                        29000010
         AGO   .CKK                                                     29500010
.OLD     ANOP                                                           30000010
&A       SETA  4                                                        30500010
         ORG   *-4                                                      31000010
.CKK     ANOP                                                           31500010
         AIF   (K'&MTYPE GT 1).CKFORM                                   32000010
&NAME    DC    C'&MTYPE' .              MSGTYPE                         34000010
         AGO   .RTNADR                                                  36000010
.CKFORM  AIF   ('&MTYPE'(1,2) EQ 'X''').CKX                             38000010
         AIF   ('&MTYPE'(1,2) EQ 'C''').CKC                             40000010
         AIF   ('&MTYPE'(1,4) EQ 'XL1''').CKXL                          42000010
         AIF   ('&MTYPE'(1,4) EQ 'CL1''').CKCL                          44000010
         AGO   .ERR2                                                    46000010
.CKX     AIF   ('&MTYPE'(5,1) EQ '''' AND K'&MTYPE EQ 5).GOOD1          48000010
         AGO   .ERR2                                                    50000010
.CKC     AIF   ('&MTYPE'(4,1) EQ '''' AND K'&MTYPE EQ 4).GOOD1          52000010
         AGO   .ERR2                                                    54000010
.CKXL    AIF   ('&MTYPE'(7,1) EQ '''' AND K'&MTYPE EQ 7).GOOD1          56000010
         AGO   .ERR2                                                    58000010
.CKCL    AIF   ('&MTYPE'(6,1) EQ '''' AND K'&MTYPE EQ 6).GOOD1          60000010
         AGO   .ERR2                                                    62000010
.GOOD1   ANOP                                                           64000010
&NAME    DC    &MTYPE .                 MSG TYPE                        66000010
.RTNADR  DC    AL3(&ROUTINE) .          ROUTINE ADR                     68000010
         DC    AL4(1) .                 OVERLAY AREA/EOTABLE IND        70000010
&C       CSECT                                                          72000010
&IEDQZK  SETA  &IEDQZK+&A+&B                                            74000010
         AGO   .MEND                                                    76000010
.ERR2    MNOTE 12,'***  IHB300  MSG TYPE OPERAND INVALID AS SPECIFIED'  80000010
.MEND    ANOP                                                           86000010
         MEND                                                           88000010
