         MACRO                                                          02000020
&NAME    UNLOCK &CHARS,&BLANK=YES,&CONNECT=OR,&DISABLE=NO       SA51090 04000010
         GBLA  &IEDQZD,&IEDQZE(64)                                      06000020
         GBLB  &IEDQZA(64)                                              08000020
         GBLC  &IEDQZB,&IEDQZC                                          10000020
         LCLB  &NOGO,&ALG,&BIT,&MASKMN,&DIS                     SA51090 12000010
.*C040000,120000-140000,260000-320000                           SA51090 13000010
.*D480000                                                       SA51090 14000010
.*             VERSION DATED FEBRUARY 29, 1972                  SA51090 15000010
         SPACE                                                          16000020
         AIF   (NOT &IEDQZA(9)).TSOCHK                                  18000020
         MNOTE 12,'***  IHB312  MUST FOLLOW STARTMH MACRO WITH TSOMH=NO*20000020
               '                                                        22000020
&NOGO    SETB  1                                                        24000020
.TSOCHK  AIF   (&IEDQZA(3) OR &IEDQZA(4) OR &IEDQZA(5)).OK      SA51090 26000010
         MNOTE 12,'*** IHB070 SEQUENCE ERROR - MUST FOLLOW INHDR,INMSG,X26100010
               OUTHDR OR OUTMSG MACRO'                          SA51090 26200010
         MEXIT                                                  SA51090 26300010
.OK      AIF   (NOT &IEDQZA(5)).CHK                             SA51090 26400010
.MASK    AIF   ('&CHARS' EQ '').AND                             SA51090 26500010
         IEDQMASK &CHARS,5                                      SA51090 26600010
         AIF   (NOT &IEDQZA(24)).CNCL                           SA51090 26700010
.ERR     AIF   (&MASKMN).AND                                    SA51090 26800010
         MNOTE 12,'***  IHB300  MASK OPERAND INVALID AS SPECIFIED ***'  26900010
.* PREVIOUS STATEMENT MICROFICHE                                SA51090 27000010
&MASKMN  SETB  1                                                SA51090 27100010
&NOGO    SETB  1                                                SA51090 27200010
.CNCL    AIF   ('&CHARS'(1,1) NE 'X').AND                       SA51090 27300010
         AIF   ('&CHARS'(2,1) EQ 'L' AND '&CHARS'(3,1) NE '5').ERR      27400010
.* PREVIOUS STATEMENT MICROFICHE                                SA51090 27500010
         AIF   ('&CHARS'(2,1) NE 'L' AND K'&CHARS NE 13).ERR    SA51090 27600010
.AND     AIF   ('&CONNECT' EQ 'AND' OR '&CONNECT' EQ 'OR').OP   SA51090 27700010
         MNOTE 12,'***  IHB300  CONNECT OPERAND INVALID AS SPECIFIED '  27800010
.* PREVIOUS STATEMENT MICROFICHE                                SA51090 27900010
&NOGO    SETB  1                                                SA51090 28000010
.OP      ANOP                                                   SA51090 28100010
         AIF   ('&DISABLE' EQ 'YES' OR '&DISABLE' EQ 'NO').GOODOP       28200010
.* PREVIOUS STATEMENT MICROFICHE                                SA51090 28300010
         MNOTE 12,'***  IHB300  DISABLE OPERAND INVALID AS SPECIFIED'   28400010
.* PREVIOUS STATEMENT MICROFICHE                                SA51090 28500010
&NOGO    SETB  1                                                SA51090 28600010
.GOODOP  AIF   (&NOGO).MEND                                     SA51090 28700010
&DIS     SETB  ('&DISABLE' EQ 'YES')                            SA51090 28800010
&ALG     SETB  ('&CONNECT' EQ 'AND')                            SA51090 28900010
         IEDQVCON 45,IEDQBF                                     SA51090 29000010
&BIT     SETB  ('&CHARS' EQ '0' OR '&CHARS' EQ 'X''0000000000''' OR    X29100010
               '&CHARS' EQ 'XL5''0000000000''' OR '&CHARS' EQ '')       29200010
.* PREVIOUS STATEMENT MICROFICHE                                SA51090 29300010
         AIF   (&BIT).DC1                                       SA51090 29400010
&NAME    DC    AL1((&IEDQZE(45)+&BIT),(&ALG+8),(&DIS))          SA51090 29500010
         AIF   ('&CHARS'(1,1) EQ 'X').HEX                       SA51090 29600010
         DC    FL5'&CHARS' .            ERROR MASK              SA51090 29700010
         AGO   .MEND                                            SA51090 29800010
.HEX     DC    &CHARS .                 ERROR MASK              SA51090 29900010
         AGO   .MEND                                            SA51090 30000010
.DC1     ANOP                                                   SA51090 30100010
&NAME    DC    AL1((&IEDQZE(45)+&BIT),(4+&ALG),(&DIS)),AL1(0)   SA51090 30200010
         AGO   .MEND                                            SA51090 30300010
.CHK     AIF   ('&CHARS' EQ '').NM                                      34000020
         IEDQCHAR 8,&CHARS                                              36000020
         AIF   (&IEDQZA(24)).CHARERR                                    38000020
         AIF   (&IEDQZD LE 8).NM                                        40000020
.CHARERR MNOTE 12,'***  IHB300  CHARACTER OPERAND INVALID AS SPECIFIED' 42000020
&NOGO    SETB  1                                                        44000020
.NM      AIF   (&NOGO).MEND                                             46000020
&NAME    DS    0H                                                       50000020
.NON     AIF   ('&CHARS' EQ '').DC                                      52000020
         IEDQSCAN &IEDQZD,&CHARS,&BLANK                                 54000020
         AIF   (&IEDQZA(24)).MEND                                       56000020
         LTR   15,15                                                    58000020
         BNP   *+24                                                     64000020
         L     1,IEDADBUF .             GET BUFFER ADDRESS              70000020
         STH   15,24(,1) .              STORE SCAN POINTER IN BFR PFX   72000020
.DC      IEDQVCON 45,IEDQBF                                             74000020
         BAL   1,*+6                                                    76000020
         DC    AL1(&IEDQZE(45)),AL1(0)                                  78000020
         L     15,IEDUI                                                 80000020
         BALR  14,15                                                    82000020
.MEND    SPACE 2                                                        84000020
         MEND                                                           86000020
