         MACRO                                                          00050000
&NAME    WTL   &MESG,&MF=I                                              00100000
         GBLB  &IHBWTL                                                  00150000
&IHBWTL  SETB  1                                                        00200000
&NAME    WTO   &MESG,MF=&MF                                             00250000
&IHBWTL  SETB  0                                                        00300000
         AIF   ('&MF' EQ 'L').END                                       00350000
         SVC   36                                ISSUE WTL SVC          00400000
.END     MEND                                                           00450000
