*  %/*                                                                  00050046
         MACRO                                                          00250002
&NAME    WTO   &MESG,&MF=I,&ROUTCDE=,&DESC=,&MSGTYP=,&MCSFLAG=,&QID=,&AX00300002
               REAID=                                                   00350002
.********************************************************************** 00400064
.*                                                             @G64DPSS 00401064
.*                  WTO - WRITE TO OPERATOR                    @G64DPSS 00401964
.*                                                             @G64DPSS 00402864
.* STATUS     - OS/VS2 SYSTEM CONTROL PROGRAM 2                @G64DPSS 00403764
.*              05/17/78  LEVEL=04                             @G64DPSS 00404664
.*                                                             @G64DPSS 00405564
.* INVOCATION - SPECIFY:  WTO MESG,ROUTCDE=,DESC=,MSGTYP=,     @G64DPSS 00406464
.*                            MCSFLAG=,QID=,AREAID=,MF=        @G64DPSS 00407364
.*              WHERE:                                         @G64DPSS 00408264
.*                MESG     THE MESSAGE TEXT FOR A SINGLE OR    @G64DPSS 00409164
.*                         MULTIPLE LINE MESSAGE TO BE         @G64DPSS 00410064
.*                         WRITTEN.                            @G64DPSS 00410964
.*                ROUTCDE= ROUTING CODES TO BE ASSIGNED TO THE @G64DPSS 00411864
.*                         MESSAGE.                            @G64DPSS 00412764
.*                                                             @G64DPSS 00413664
.*                DESC=    DESCRIPTOR CODES TO BE ASSIGNED TO  @G64DPSS 00414564
.*                         THE MESSAGE.                        @G64DPSS 00415464
.*                                                             @G64DPSS 00416364
.*                MSGTYP=  SPECIFIES HOW THE MESSAGE IS TO BE  @G64DPSS 00417264
.*                         ROUTED. VALID VALUES ARE:           @G64DPSS 00418164
.*                           N,Y,SESS,JOBNAMES,STATUS,ACTIVE,  @G64DPSS 00419064
.*                           SHOW                              @G64DPSS 00419964
.*                                                             @G64DPSS 00420864
.*                MCSFLAG= SPECIFIES ATTRIBUTES OF THE         @G64DPSS 00421764
.*                         MESSAGE. VALID VALUES ARE:          @G64DPSS 00422664
.*                           REG0,RESP,REPLY,BRDCST,HRDCPY,    @G64DPSS 00423564
.*                           QREG0,NOTIME,NOCPY                @G64DPSS 00424464
.*                                                             @G64DPSS 00425364
.*                QID=     REMOTE ENTRY SERVICES (RSS) QUEUE   @G64DPSS 00426264
.*                         ID (OS/VS1 ONLY).                   @G64DPSS 00427164
.*                                                             @G64DPSS 00428064
.*                AREAID=  SPECIFIES A DISPLAY AREA ON THE     @G64DPSS 00428964
.*                         CONSOLE WHERE THE MESSAGE IS TO BE  @G64DPSS 00429864
.*                         WRITTEN.                            @G64DPSS 00430764
.*                                                             @G64DPSS 00431664
.*                MF=      SPECIFIES THE TYPE OF EXPANSION     @G64DPSS 00432564
.*                         REQUIRED. VALID VALUES ARE:         @G64DPSS 00433464
.*                           I,L,E                             @G64DPSS 00434364
.*                                                             @G64DPSS 00435264
.* FUNCTION   - BUILDS A WRITE TO OPERATOR PARAMETER LIST      @G64DPSS 00436164
.*              (WPL) AND/OR THE CODE WHICH WILL INVOKE SVC 35 @G64DPSS 00437064
.*              TO ISSUE THE MESSAGE.                          @G64DPSS 00437964
.*                                                             @G64DPSS 00438864
.* CHANGE ACTIVITY -                                           @G64DPSS 00439764
.*              G64DPSS,OZ43167                                @G64DPSS 00440646
.*                                                             @G64DPSS 00441564
.********************************************************************** 00446064
         GBLB  &IHBWTL,&IHBWTOR                                         00450002
         LCLA  &LT(256),&H,&I,&N,&J,&LEN,&LNUM,&LLCNT            X02007 00500002
         LCLB  &NODFLT                                                  00550002
         LCLB  &B(16),&AD,&E,&E1,&E2,&E3,&E4,&E5,&E6,&MCS,&MLW   X02007 00600002
         LCLB  &SECONDL,&SWM,&TWO,&PAIR                          X02007 00650002
         LCLC  &CFLG(16),&CD(16),&GNAME                          X02007 00700002
         ACTR  30000                                           @G64DPSS 00720064
&GNAME   SETC  'IHB'.'&SYSNDX'                                          00750002
         AIF    ('&MF' EQ 'I' OR '&MF' EQ 'L').NUMCHK            X02007 00800002
         AIF   (N'&MF NE 2).E1                                          00850002
         AIF   ('&MF(1)' NE 'E').E1                                     00900002
&NAME    IHBINNRA &MF(2)                                                00950002
         AIF   (&IHBWTL).END                                            01000002
         AIF   (T'&QID EQ 'O').S3                                X02050 01050002
         LR    14,1                 * MOVE                       X02050 01100002
         AH    14,0(1,0)            *   QID                      YM1995 01150002
         AIF   ('&QID'(1,1) EQ '(').S2                           X02050 01200002
         MVC   6(2,14),&QID         *     INTO PARAM LIST        X02050 01250002
         AGO   .S3                                               X02050 01300002
.S2      ANOP                                                    X02050 01350002
         MVC   6(2,14),0(&QID(1))   *     INTO PARAM LIST        X02050 01400002
.S3      ANOP                                                    X02050 01450002
         SVC   35                                ISSUE SVC              01500002
         AGO   .END                                                     01550002
.NUMCHK  ANOP                                                    X02007 01600002
         AIF   (N'&SYSLIST EQ 0 OR N'&SYSLIST GT 255).NOTXT    @G64DPSS 01650064
         AIF   ('&MF' EQ 'I').IROUT                              X02007 01700002
.LROUT   AIF   (&IHBWTOR).MESCHK                                        01750002
&NAME    DS    0F                                                       01800002
.MESCHK  ANOP                                                           01850002
&I       SETA  1                                                        01900002
&MCS     SETB  (T'&ROUTCDE NE 'O' OR T'&MSGTYP NE 'O' OR T'&QID NE 'O') 01950002
.*                                                               X02050 02000002
&B(3)    SETB  0                                                   MCS  02050002
         AIF   ('&MESG' EQ '').NOTXT                             X02007 02100002
&MLW     SETB  (N'&SYSLIST NE 1 OR N'&SYSLIST(1) NE 1)           X02007 02150002
         AIF   (T'&DESC EQ 'O').SETNCLR                                 02200002
&MCS     SETB  1                                                        02250002
.*                                                                      02300002
.*  DESCRIPTOR CODES                                                    02350002
.*                                                                      02400002
.DCHK    ANOP                                                           02450002
&N       SETA  &DESC(&I)                                                02500002
&I       SETA  &I+1                                                     02550002
         AIF   (&N GE 1 AND &N LE 16).ASSIGND                           02600002
         MNOTE 8,'DESC &N IS INVALID DESCRIPTOR- IGNORED'      @ZA43167 02650046
         AGO   .NXTD                                                    02700002
.ASSIGND ANOP                                                           02750002
&B(&N)   SETB  1                                                        02800002
.NXTD    AIF   (&I LE N'&DESC).DCHK                                     02850002
&I       SETA  1                                                        02900002
         AGO   .SETNCLR                                                 02950002
.*                                                                      03000002
.*  ROUTE CODES                                                         03050002
.*                                                                      03100002
.RTCHK   AIF   (T'&ROUTCDE NE 'O').RCHK0                                03150002
.DEFLAG  ANOP                                                           03200002
&I       SETA  3                                                        03250002
         AIF   (&J EQ N'&MCSFLAG OR T'&MCSFLAG EQ 'O').DODEF            03300002
&J       SETA  &J+1                                                     03350002
         AIF   ('&MCSFLAG(&J)' EQ 'REG0' OR '&MCSFLAG(&J)' EQ 'QREG0').*03400002
               SETNCLR                                                  03450002
         AGO   .DEFLAG                                                  03500002
.DODEF   ANOP                                                           03550002
&B(2)    SETB  (&MCS)                                                   03600002
&I       SETA  3                                                        03650002
         AGO   .SETNCLR                                                 03700002
.*                                                                      03750002
.RCHK0   ANOP                                                           03800002
.RCHK    ANOP                                                           03850002
&N       SETA  &ROUTCDE(&I)                                             03900002
&I       SETA  &I+1                                                     03950002
         AIF   (&N GE 1 AND &N LE 16).ASSIGNR                           04000002
         MNOTE 8,'ROUTCDE &N  IS INVALID ROUTE- IGNORED'       @ZA43167 04050046
         AGO   .NXTR                                                    04100002
.ASSIGNR ANOP                                                           04150002
&NODFLT  SETB  (&NODFLT OR &N NE 16)                                    04200002
&B(&N)   SETB  1                                                        04250002
.NXTR    AIF   (&I LE N'&ROUTCDE).RCHK                                  04300002
&I       SETA  3                                                        04350002
&B(2)    SETB  (&B(2) OR NOT &NODFLT)                                   04400002
&NODFLT  SETB  0                                                        04450002
&B(16)   SETB  0                                                        04500002
.NOT11   ANOP                                                           04550002
.*                                                                      04600002
.*  SET OUTPUT AREAS AND CLEAR BINARY FLAGS                             04650002
.*                                                                      04700002
.SETNCLR ANOP                                                           04750002
&CD(&I)  SETC  '&B(1)&B(2)&B(3)&B(4)&B(5)&B(6)&B(7)&B(8)'               04800002
&CD(&I+1) SETC '&B(9)&B(10)&B(11)&B(12)&B(13)&B(14)&B(15)&B(16)'        04850002
&N       SETA  1                                                        04900002
.CLR     ANOP                                                           04950002
&B(&N)   SETB  0                                                        05000002
&N       SETA  &N+1                                                     05050002
         AIF   (&N LT 17).CLR                                           05100002
         AIF   (&I EQ 1).RTCHK                                          05150002
         AIF   (&I EQ 5).FLGCHK0                                        05200002
         AIF   (&I EQ 7).GENDCS                                  X02007 05250002
.*                                                                      05300002
.*  MESSAGE TYPES                                                       05350002
.*                                                                      05400002
.TYPCHK  ANOP                                                    X02050 05450002
         AIF   (T'&QID EQ 'O' OR '&QID(1)' EQ 'N').TYPCHK1       X02050 05500002
&B(4)    SETB  1                                                 X02050 05550002
&SWM     SETB  1                                                 X02050 05600002
         AGO   .TYPCHK2                                          X02050 05650002
.TYPCHK1 ANOP                                                    X02050 05700002
         AIF   (T'&MSGTYP EQ 'O').FLGCHK0                        X02050 05750002
         AIF   ('&MSGTYP(1)' EQ 'N').FLGCHK0                            05800002
.TYPCHK2 ANOP                                                    X02050 05850002
&SWM     SETB  1                                                 X02007 05900002
&I       SETA  5                                                        05950002
&N       SETA  1                                                        06000002
         AIF   ('&MSGTYP(1)' EQ 'Y' OR '&MSGTYP(1)' EQ 'N').SETNCLR     06050002
&I       SETA  1                                                        06100002
.*                                                                      06150002
&CFLG(1) SETC  'JOBNAMES'                                               06200002
&CFLG(2) SETC  'STATUS'                                                 06250002
&CFLG(3) SETC  'ACTIVE'                                          X02007 06300002
&CFLG(4) SETC  ''                                                       06350002
&CFLG(5) SETC  'SHOW'                                              CRJE 06400002
&CFLG(6) SETC  'SESS'                                            20034  06450002
.*                                                                      06500002
.TCHK    AIF   ('&MSGTYP(&I)' EQ '&CFLG(&N)').SETTYP                    06550002
&N       SETA  &N+1                                                     06600002
         AIF   (&N LE 8).TCHK                                           06650002
         MNOTE 8,'MESSAGE TYPE FIELD INVALID- N IS ASSUMED'             06700002
&N       SETA  1                                                 X02007 06750002
&I       SETA  5                                                 X02007 06800002
&SWM     SETB  0                                                 X02007 06850002
         AGO   .CLR                                              X02007 06900002
.SETTYP  AIF   ('&CFLG(&N)' EQ '').ADDIT                                06950002
&B(&N)   SETB 1                                                         07000002
.ADDIT   ANOP                                                           07050002
&I       SETA  &I+1                                                     07100002
&N       SETA  1                                                        07150002
         AIF   (&I LE N'&MSGTYP).TCHK                                   07200002
&I       SETA  5                                                        07250002
         AGO   .SETNCLR                                                 07300002
.*                                                                      07350002
.*  MCSFLAGS                                                            07400002
.*                                                                      07450002
.FLGCHK0 ANOP                                                           07500002
&B(1)    SETB  (&MCS)                                                   07550002
&B(4)    SETB  (&SWM)                                                   07600002
&B(10)   SETB  (&MLW)              THIS IS MLWTO LIST            X02007 07650002
&I       SETA  7                                                        07700002
         AIF   (T'&MCSFLAG EQ 'O').SETNCLR                              07750002
&I       SETA  1                                                        07800002
&N       SETA  1                                                        07850002
.*                                                                      07900002
&CFLG(1) SETC  'REG0'                                                   07950002
&CFLG(2) SETC  'RESP'                                                   08000002
&CFLG(3) SETC  ''                                                       08050002
&CFLG(4) SETC  'REPLY'                                                  08100002
&CFLG(5) SETC  'BRDCST'                                                 08150002
&CFLG(6) SETC  'HRDCPY'                                                 08200002
&CFLG(7) SETC  'QREG0'                                                  08250002
&CFLG(8) SETC  'NOTIME'                                                 08300002
&CFLG(13) SETC 'NOCPY'                                                  08350002
.*                                                                      08400002
.FLGCHK  AIF   ('&MCSFLAG(&I)' EQ '&CFLG(&N)').SETFLG                   08450002
&N       SETA  &N+1                                                     08500002
         AIF   (&N LE 15).FLGCHK                                        08550002
         MNOTE 8,'&MCSFLAG(&I) IS INVALID- IGNORED'                     08600002
         AGO   .ADDI                                                    08650002
.SETFLG  AIF   ('&CFLG(&N)' EQ '').ADDI                                 08700002
         AIF   ('&CFLG(&N)' NE 'HRDCPY').HDCYOK                  X02007 08750002
         AIF   (NOT &MLW).HDCYOK                                 X02007 08800002
         IHBERMAC 248                                                   08850002
&GNAME.A DS    0H                                                A57404 08900002
         MEXIT                                                   A57404 08950002
.HDCYOK  ANOP                                                           09000002
&B(&N+1) SETB  1                                                        09050002
.ADDI    ANOP                                                           09100002
&I       SETA  &I+1                                                     09150002
&N       SETA  1                                                        09200002
         AIF   (&I LE N'&MCSFLAG).FLGCHK                                09250002
         AIF   (&B(7) AND &B(14)).MUTEXC  THESE PARAM MUTUALLY EXCLUSIV 09300002
.*                                      HARDCOPY AND NO HARD COPY       09350002
         AGO   .SETTER                                                  09400002
.MUTEXC  ANOP                                                           09450002
&B(14)   SETB  0                                                        09500002
         MNOTE 8,'HRDCPY AND NOCPY MUTUALLY EXCLUSIVE, HRDCPY ASSUMED'  09550002
.SETTER  ANOP                                                           09600002
&I       SETA  7                                                        09650002
         AGO   .SETNCLR                                                 09700002
.IROUT   AIF   (&IHBWTOR).MESCHK                                        09750002
         CNOP  0,4                                                      09800002
&NAME    BAL   1,&GNAME.A                        BRANCH AROUND MESSAGE  09850002
         AGO   .MESCHK                                                  09900002
.*                                                               X02007 09950002
.*  * *  SET LINETYPE  * * * * *                                 X02007 10000002
.*                                                               X02007 10050002
.GENDCS  AIF   (NOT &MLW).NOTMLW1  GENERATE REGULAR WTO          X02007 10100002
&H       SETA  1                                                 X02007 10150002
         AIF   ('&SYSLIST(1,1)' EQ '').MLW04                     X02007 10200002
         AIF   (N'&SYSLIST(1) GT 2).MLW05                        X02007 10250002
         AIF   ('&SYSLIST(1,2)' NE 'C').MLW02                    X02007 10300002
&LT(1)   SETA  80                                                X02007 10350002
.MLW01   AIF   (N'&SYSLIST LE &H).MLW11                          X02007 10400002
&H       SETA  &H+1                                              X02007 10450002
         AIF   (N'&SYSLIST(&H) GT 2).MLW05                       X02007 10500002
.MLW02   AIF   ('&SYSLIST(&H,2)' NE 'L' OR '&SYSLIST(&H,1)' EQ '').MLW0X10550002
               4                                                 X02007 10600002
&LT(&H)  SETA  40                                                X02007 10650002
         AIF   (&SECONDL).MLW03                                  X02007 10700002
&SECONDL SETB  1                                                 X02007 10750002
         AGO   .MLW01                                            X02007 10800002
.MLW03   AIF   (N'&SYSLIST LE &H).MLW11                          X02007 10850002
&H       SETA  &H+1                                              X02007 10900002
         AIF   (N'&SYSLIST(&H) GT 2).MLW05                       X02007 10950002
.MLW04   AIF   ('&SYSLIST(&H,2)' EQ 'E').MLW06                   X02007 11000002
         AIF   ('&SYSLIST(&H,1)' EQ '').MLW05                    X02007 11050002
         AIF   ('&SYSLIST(&H,2)' EQ 'DE').MLW08                  X02007 11100002
         AIF   ('&SYSLIST(&H,2)' EQ 'L' OR '&SYSLIST(&H,2)' EQ 'C').MLWX11150002
               09                                                X02007 11200002
         AIF   ('&SYSLIST(&H,2)' NE 'D' AND '&SYSLIST(&H,2)' NE '').MLW*11250002
               10                                                X02007 11300002
&LT(&H)  SETA  20                                                X02007 11350002
         AGO   .MLW03                                            X02007 11400002
.MLW05   ANOP                                                    X02007 11450002
&E5      SETB  1                                                 X02007 11500002
&LT(&H)  SETA  10                                                X02007 11550002
         AGO   .MLW11                                            X02007 11600002
.MLW06   ANOP                                                    X02007 11650002
&LT(&H)  SETA  10                                                X02007 11700002
.MLW07   ANOP                                                    X02007 11750002
&E4      SETB  (&H NE N'&SYSLIST)                                X02007 11800002
         AGO   .MLW11                                            X02007 11850002
.MLW08   ANOP                                                    X02007 11900002
&LT(&H)  SETA  30                                                X02007 11950002
         AGO   .MLW07                                            X02007 12000002
.MLW09   ANOP                                                    X02007 12050002
&E3      SETB  1                                                 X02007 12100002
&LT(&H)  SETA  30                                                X02007 12150002
         AGO   .MLW11                                            X02007 12200002
.MLW10   ANOP                                                    X02007 12250002
&E5      SETB  1                                                 X02007 12300002
&LT(&H)  SETA  30                                                X02007 12350002
.MLW11   ANOP                                                    X02007 12400002
&LLCNT   SETA  &H                                                X02007 12450002
&H       SETA  1                                                 X02007 12500002
.NOTMLW1 ANOP                                                    X02007 12550002
&I       SETA  1                                                 X02007 12600002
&LEN     SETA  K'&SYSLIST(1,1)-2                                 X02007 12650002
&PAIR    SETB  0                                                 X02007 12700002
.QLOOP1  ANOP                                                    X02007 12750002
&I       SETA  &I+1+&PAIR                                        X02007 12800002
         AIF   (&I GE K'&SYSLIST(1,1)).QDONE1                    X02007 12850002
&PAIR    SETB  ('&SYSLIST(1,1)'(&I,2) EQ '''''' OR '&SYSLIST(1,1)'(&I,2X12900002
               ) EQ '&&')                                        A57481 12910002
&LEN     SETA  &LEN-&PAIR                                        X02007 12950002
         AGO   .QLOOP1                                           X02007 13000002
.QDONE1  ANOP                                                    X02007 13050002
&AD      SETB  (&LT(1) NE 10)      0 IF E-TYPE LINE, 1 IF NOT    X02007 13100002
&LEN     SETA  4+&LEN*&AD                                        X02007 13150002
         DC    AL2(&LEN)           TEXT LENGTH                          13200002
         DC    B'&CD(7)&CD(8)'     MCS FLAGS                            13250002
         AIF   (&LEN EQ 4).SKIPDC                                X02007 13300002
         DC    C&SYSLIST(1,1)                                           13350002
.SKIPDC  AIF   (NOT &MCS).OLDEXIT                                X02007 13400002
         DC    B'&CD(1)&CD(2)'     DESCRIPTOR CODES                     13450002
         DC    B'&CD(3)&CD(4)'     ROUTING CODES                        13500002
         AIF   ('&MSGTYP(1)' NE 'Y' AND NOT &SWM).OLDEXIT        X02007 13550002
         DC    B'&CD(5)&CD(6)'     MESSAGE TYPE                         13600002
         AIF   (T'&QID EQ 'O' OR '&QID(1)' EQ 'N').OLDEXIT       X02050 13650002
         AIF   (T'&QID EQ 'N').GENDCS1                           X02050 13700002
         AIF   ('&QID(1)' EQ 'Y').GENDCS0                        X02050 13750002
         MNOTE 8,'QID FIELD IS INVALID- ZERO ASSUMED'                   13800002
.GENDCS0 ANOP                                                    X02050 13850002
         DC    AL2(0)                   QID FIELD                X02050 13900002
         AGO   .OLDEXIT                                          X02050 13950002
.GENDCS1 ANOP                                                    X02050 14000002
         DC    AL2(&QID)                QID                      X02050 14050002
.OLDEXIT AIF   (NOT &MLW).NOTMLW2                                X02007 14100002
         DC    XL2'&LT(1)00'       LINE TYPE                            14150002
         AIF   ('&AREAID' EQ '').ID0                             X02007 14200002
         DC    CL1'&AREAID'            AREA ID                   X02007 14250002
         AGO   .IDA                                              X02007 14300002
.ID0     DC    X'00'                                                    14350002
.IDA     ANOP                                                    X02007 14400002
         DC    AL1(&LLCNT)             TOTAL NUMBER OF LINES     X02007 14450002
.MLW12   AIF   (&H GE &LLCNT).MLW14                              X02007 14500002
&H       SETA  &H+1                                              X02007 14550002
&I       SETA  1                                                 X02007 14600002
&LEN     SETA  K'&SYSLIST(&H,1)-2                                X02007 14650002
&PAIR    SETB  0                                                 X02007 14700002
.QLOOPH  ANOP                                                    X02007 14750002
&I       SETA  &I+1+&PAIR                                        X02007 14800002
         AIF   (&I GE K'&SYSLIST(&H,1)).QDONEH                   X02007 14850002
&PAIR    SETB  ('&SYSLIST(&H,1)'(&I,2) EQ '''''' OR '&SYSLIST(&H,1)'(&IX14900002
               ,2) EQ '&&')                                      A57481 14910002
&LEN     SETA  &LEN-&PAIR                                        X02007 14950002
         AGO   .QLOOPH                                           X02007 15000002
.QDONEH  ANOP                                                    X02007 15050002
&AD      SETB  (&LT(&H) NE 10)     0 IF E-TYPE LINE, 1 IF NOT    X02007 15100002
&LEN     SETA  4+&LEN*&AD                                        X02007 15150002
         DC    AL2(&LEN)           LENGTH                               15200002
         DC    XL2'&LT(&H)00'      LINE TYPE                            15250002
         AIF   (&LEN EQ 4).MLW12                                 X02007 15300002
         DC    C&SYSLIST(&H,1)                                          15350002
         AGO   .MLW12                                            X02007 15400002
.MLW14   AIF   (NOT &E4).MLW15                                   X02007 15450002
         IHBERMAC 242                                                   15500002
.MLW15   AIF   (NOT &E5).MLW17                                   X02007 15550002
         IHBERMAC 243                                                   15600002
.MLW17   AIF   (NOT &E3).NOTMLW2                                 X02007 15650002
         IHBERMAC 244                                                   15700002
.NOTMLW2 AIF   (&IHBWTOR OR '&MF' NE 'I').END                    X02007 15750002
.MLWHC   ANOP                                                           15800002
&GNAME.A DS    0H                                                       15850002
         AIF   (&E6 OR &E3 OR &IHBWTL).END                       X02007 15900002