*%/*                                                                    00060002
         MACRO                                                          00070002
&NAME    XCTL  &REG,&EP=,&EPLOC=,&DE=,&DCB=,&PARAM=,&VL=,&HIARCHY=,    X00100002
               &SF=I,&MF=I                                              00150002
         GBLB  &IHBSWA,&IHBSWB                                          00200002
         LCLA  &CTR                                                     00250002
.*4048000400,002000,003000                                              00300002
.*003220,003360                                                  A31501 00350002
&IHBSWA  SETB  ('&VL' EQ '1')                                           00400002
&IHBSWB  SETB  1                                                        00450002
         AIF   ('&PARAM&VL' NE '' AND '&MF(1)' NE 'E').E1               00500002
         AIF   ('&MF' EQ 'L').E2                                        00550002
         AIF   ('&SF' EQ 'L' AND '&MF&PARAM&VL&REG' NE 'I').E3          00600002
         AIF   ('&HIARCHY' NE '').E0                                    00650002
.CONT    AIF   ('&NAME' EQ '' OR '&SF' EQ 'L').CONTA                    00700002
&NAME    DS    0H                                                       00750002
.CONTA   AIF   ('&MF(1)' NE 'E').CONTB                                  00800002
         IHBOPLST ,&PARAM,MF=&MF                                        00850002
.CONTB   ANOP                                                           00900002
&NAME    IHBINNRB  &EP,&EPLOC,&DE,&DCB,&HIARCHY,SF=&SF                  00950002
         AIF   ('&SF' EQ 'L').END                                       01000002
         AIF   ('&REG' EQ '').SVC                                       01050002
         AIF   (T'&REG(1) NE 'N').E4                                    01100002
         AIF   (&REG(1) LT 2 OR &REG(1) GT 12).E4                       01150002
         AIF   (N'&REG EQ 1).CONTC                                      01200002
         AIF   (N'&REG NE 2).E4                                         01250002
         AIF   (T'&REG(2) NE 'N').E4                                    01300002
         AIF   (&REG(2) LE &REG(1) OR &REG(2) GT 12).E4                 01350002
&CTR     SETA  &REG(1)*4+20                                             01400002
         LM    &REG(1),&REG(2),&CTR.(13)         RESTORE REGISTERS      01450002
         AGO   .SVC                                                     01500002
.CONTC   ANOP                                                           01550002
&CTR     SETA  &REG(1)*4+20                                             01600002
         L     &REG(1),&CTR.(13,0)               RESTORE REGISTER       01650002
.SVC     SVC   7                                 ISSUE XCTL SVC         01700002
         MEXIT                                                          01750002
.E0      AIF   ('&HIARCHY' LT '0' OR '&HIARCHY' GT '1').E5              01800002
         AGO   .CONT                                                    01850002
.E4      IHBERMAC 36,,&REG                                              01900002
         MEXIT                                                          01950002
.E1      IHBERMAC 95                                                    02000002
         MEXIT                                                          02050002
.E2      IHBERMAC 84                                                    02100002
         MEXIT                                                          02150002
.E3      IHBERMAC 75                                                    02200002
         MEXIT                                                          02250002
.E5      IHBERMAC 195                                                   02300002
.END     MEND                                                           02350002
**/                                                                     02400002
*XCTL:   MACRO                                                          02450002
*        KEYS(DCB,DE,EP,REGS,PARAM,SF,VL,MF);                           02500002
*        ANS('?'||MACLABEL||'XCTLP '||MACLIST||MACKEYS||';');           02550002
*%END;                                                                  02600002
